* NGSPICE file created from heichips26_digital_project.ext - technology: ihp-sg13cmos5l

* Black-box entry subcircuit for sg13cmos5l_decap_8 abstract view
.subckt sg13cmos5l_decap_8 VDD VSS
.ends

* Black-box entry subcircuit for sg13cmos5l_fill_2 abstract view
.subckt sg13cmos5l_fill_2 VDD VSS
.ends

* Black-box entry subcircuit for sg13cmos5l_buf_1 abstract view
.subckt sg13cmos5l_buf_1 X A VDD VSS
.ends

* Black-box entry subcircuit for sg13cmos5l_fill_1 abstract view
.subckt sg13cmos5l_fill_1 VDD VSS
.ends

* Black-box entry subcircuit for sg13cmos5l_decap_4 abstract view
.subckt sg13cmos5l_decap_4 VDD VSS
.ends

* Black-box entry subcircuit for sg13cmos5l_tiehi abstract view
.subckt sg13cmos5l_tiehi L_HI VDD VSS
.ends

* Black-box entry subcircuit for counter abstract view
.subckt counter VGND VPWR clk_i count_o[0] count_o[1] count_o[2] count_o[3] count_o[4]
+ count_o[5] count_o[6] count_o[7] enable_i rst_ni
.ends

* Black-box entry subcircuit for sg13cmos5l_antennanp abstract view
.subckt sg13cmos5l_antennanp A VDD VSS
.ends

.subckt heichips26_digital_project VGND VPWR clk ena rst_n ui_in[0] ui_in[1] ui_in[2]
+ ui_in[3] ui_in[4] ui_in[5] ui_in[6] ui_in[7] uio_in[0] uio_in[1] uio_in[2] uio_in[3]
+ uio_in[4] uio_in[5] uio_in[6] uio_in[7] uio_oe[0] uio_oe[1] uio_oe[2] uio_oe[3]
+ uio_oe[4] uio_oe[5] uio_oe[6] uio_oe[7] uio_out[0] uio_out[1] uio_out[2] uio_out[3]
+ uio_out[4] uio_out[5] uio_out[6] uio_out[7] uo_out[0] uo_out[1] uo_out[2] uo_out[3]
+ uo_out[4] uo_out[5] uo_out[6] uo_out[7]
XFILLER_28_907 VPWR VGND sg13cmos5l_decap_8
XFILLER_39_266 VPWR VGND sg13cmos5l_decap_8
XFILLER_36_984 VPWR VGND sg13cmos5l_decap_8
XFILLER_23_634 VPWR VGND sg13cmos5l_decap_8
XFILLER_22_144 VPWR VGND sg13cmos5l_decap_8
XFILLER_7_7 VPWR VGND sg13cmos5l_decap_8
XFILLER_19_907 VPWR VGND sg13cmos5l_decap_8
XFILLER_45_203 VPWR VGND sg13cmos5l_decap_8
XFILLER_42_910 VPWR VGND sg13cmos5l_decap_8
XFILLER_26_74 VPWR VGND sg13cmos5l_decap_8
XFILLER_27_984 VPWR VGND sg13cmos5l_decap_8
XFILLER_14_634 VPWR VGND sg13cmos5l_decap_8
XFILLER_41_420 VPWR VGND sg13cmos5l_decap_8
XFILLER_42_987 VPWR VGND sg13cmos5l_decap_8
XFILLER_9_104 VPWR VGND sg13cmos5l_decap_8
XFILLER_13_144 VPWR VGND sg13cmos5l_decap_8
XFILLER_41_497 VPWR VGND sg13cmos5l_decap_8
XFILLER_10_851 VPWR VGND sg13cmos5l_decap_8
XFILLER_42_84 VPWR VGND sg13cmos5l_decap_8
XFILLER_6_844 VPWR VGND sg13cmos5l_decap_8
XFILLER_5_354 VPWR VGND sg13cmos5l_decap_8
XFILLER_1_560 VPWR VGND sg13cmos5l_decap_8
XFILLER_3_67 VPWR VGND sg13cmos5l_decap_8
XFILLER_49_564 VPWR VGND sg13cmos5l_decap_8
XFILLER_36_203 VPWR VGND sg13cmos5l_decap_8
XFILLER_45_770 VPWR VGND sg13cmos5l_decap_8
XFILLER_18_984 VPWR VGND sg13cmos5l_decap_8
XFILLER_33_921 VPWR VGND sg13cmos5l_decap_8
XFILLER_44_280 VPWR VGND sg13cmos5l_decap_8
XFILLER_33_998 VPWR VGND sg13cmos5l_decap_8
XFILLER_20_648 VPWR VGND sg13cmos5l_decap_8
XFILLER_28_704 VPWR VGND sg13cmos5l_decap_8
XFILLER_27_203 VPWR VGND sg13cmos5l_decap_8
XFILLER_43_707 VPWR VGND sg13cmos5l_decap_8
XFILLER_36_781 VPWR VGND sg13cmos5l_decap_8
XFILLER_24_921 VPWR VGND sg13cmos5l_decap_8
XFILLER_42_217 VPWR VGND sg13cmos5l_decap_8
XFILLER_35_280 VPWR VGND sg13cmos5l_decap_8
XFILLER_24_998 VPWR VGND sg13cmos5l_decap_8
XFILLER_11_648 VPWR VGND sg13cmos5l_decap_8
XFILLER_10_158 VPWR VGND sg13cmos5l_decap_8
XFILLER_12_76 VPWR VGND sg13cmos5l_decap_8
XFILLER_5_4 VPWR VGND sg13cmos5l_decap_8
XFILLER_3_858 VPWR VGND sg13cmos5l_decap_8
XFILLER_2_368 VPWR VGND sg13cmos5l_decap_8
XFILLER_19_704 VPWR VGND sg13cmos5l_decap_8
XFILLER_18_214 VPWR VGND sg13cmos5l_decap_8
XFILLER_37_84 VPWR VGND sg13cmos5l_decap_8
XFILLER_46_567 VPWR VGND sg13cmos5l_decap_8
XFILLER_15_921 VPWR VGND sg13cmos5l_decap_8
XFILLER_33_217 VPWR VGND sg13cmos5l_decap_8
XFILLER_27_781 VPWR VGND sg13cmos5l_decap_8
XFILLER_34_718 VPWR VGND sg13cmos5l_decap_8
XFILLER_26_291 VPWR VGND sg13cmos5l_decap_8
XFILLER_15_998 VPWR VGND sg13cmos5l_decap_8
XFILLER_18_1026 VPWR VGND sg13cmos5l_fill_2
XFILLER_42_784 VPWR VGND sg13cmos5l_decap_8
XFILLER_30_935 VPWR VGND sg13cmos5l_decap_8
XFILLER_41_294 VPWR VGND sg13cmos5l_decap_8
XFILLER_6_641 VPWR VGND sg13cmos5l_decap_8
XFILLER_5_151 VPWR VGND sg13cmos5l_decap_8
XFILLER_25_1019 VPWR VGND sg13cmos5l_decap_8
XFILLER_49_361 VPWR VGND sg13cmos5l_decap_8
XFILLER_37_567 VPWR VGND sg13cmos5l_decap_8
XFILLER_18_781 VPWR VGND sg13cmos5l_decap_8
XFILLER_25_718 VPWR VGND sg13cmos5l_decap_8
XFILLER_24_228 VPWR VGND sg13cmos5l_decap_8
XFILLER_21_935 VPWR VGND sg13cmos5l_decap_8
XFILLER_33_795 VPWR VGND sg13cmos5l_decap_8
XFILLER_32_294 VPWR VGND sg13cmos5l_decap_8
XFILLER_15_217 VPWR VGND sg13cmos5l_decap_8
XFILLER_16_718 VPWR VGND sg13cmos5l_decap_8
XFILLER_43_504 VPWR VGND sg13cmos5l_decap_8
XFILLER_12_935 VPWR VGND sg13cmos5l_decap_8
XFILLER_24_795 VPWR VGND sg13cmos5l_decap_8
XFILLER_8_928 VPWR VGND sg13cmos5l_decap_8
XFILLER_23_53 VPWR VGND sg13cmos5l_decap_8
XFILLER_7_427 VPWR VGND sg13cmos5l_decap_8
XFILLER_48_1008 VPWR VGND sg13cmos5l_decap_8
XFILLER_3_655 VPWR VGND sg13cmos5l_decap_8
XFILLER_2_165 VPWR VGND sg13cmos5l_decap_8
XFILLER_47_854 VPWR VGND sg13cmos5l_decap_8
XFILLER_0_35 VPWR VGND sg13cmos5l_decap_8
XFILLER_46_364 VPWR VGND sg13cmos5l_decap_8
XFILLER_15_795 VPWR VGND sg13cmos5l_decap_8
XFILLER_30_732 VPWR VGND sg13cmos5l_decap_8
XFILLER_42_581 VPWR VGND sg13cmos5l_decap_8
XFILLER_14_294 VPWR VGND sg13cmos5l_decap_8
XFILLER_9_55 VPWR VGND sg13cmos5l_decap_8
XFILLER_31_1012 VPWR VGND sg13cmos5l_decap_8
XFILLER_7_994 VPWR VGND sg13cmos5l_decap_8
XFILLER_38_854 VPWR VGND sg13cmos5l_decap_8
XFILLER_37_364 VPWR VGND sg13cmos5l_decap_8
XFILLER_12_209 VPWR VGND sg13cmos5l_decap_8
XFILLER_40_518 VPWR VGND sg13cmos5l_decap_8
XFILLER_21_732 VPWR VGND sg13cmos5l_decap_8
XFILLER_20_242 VPWR VGND sg13cmos5l_decap_8
XFILLER_0_658 VPWR VGND sg13cmos5l_decap_8
XFILLER_18_53 VPWR VGND sg13cmos5l_decap_8
XFILLER_29_865 VPWR VGND sg13cmos5l_decap_8
XFILLER_28_375 VPWR VGND sg13cmos5l_decap_8
XFILLER_43_301 VPWR VGND sg13cmos5l_decap_8
XFILLER_44_868 VPWR VGND sg13cmos5l_decap_8
XFILLER_34_63 VPWR VGND sg13cmos5l_decap_8
XFILLER_43_378 VPWR VGND sg13cmos5l_decap_8
XFILLER_12_732 VPWR VGND sg13cmos5l_decap_8
XFILLER_8_725 VPWR VGND sg13cmos5l_decap_8
XFILLER_11_286 VPWR VGND sg13cmos5l_decap_8
XFILLER_7_224 VPWR VGND sg13cmos5l_decap_8
XFILLER_4_942 VPWR VGND sg13cmos5l_decap_8
XFILLER_3_452 VPWR VGND sg13cmos5l_decap_8
XFILLER_47_651 VPWR VGND sg13cmos5l_decap_8
XFILLER_19_375 VPWR VGND sg13cmos5l_decap_8
XFILLER_35_802 VPWR VGND sg13cmos5l_decap_8
XFILLER_34_301 VPWR VGND sg13cmos5l_decap_8
XFILLER_46_161 VPWR VGND sg13cmos5l_decap_8
XFILLER_35_879 VPWR VGND sg13cmos5l_decap_8
XFILLER_34_378 VPWR VGND sg13cmos5l_decap_8
XFILLER_7_791 VPWR VGND sg13cmos5l_decap_8
XFILLER_38_651 VPWR VGND sg13cmos5l_decap_8
XFILLER_26_802 VPWR VGND sg13cmos5l_decap_8
XFILLER_25_312 VPWR VGND sg13cmos5l_decap_8
XFILLER_37_161 VPWR VGND sg13cmos5l_decap_8
XFILLER_41_805 VPWR VGND sg13cmos5l_decap_8
XFILLER_26_879 VPWR VGND sg13cmos5l_decap_8
XFILLER_40_315 VPWR VGND sg13cmos5l_decap_8
XFILLER_5_739 VPWR VGND sg13cmos5l_decap_8
XFILLER_4_249 VPWR VGND sg13cmos5l_decap_8
XFILLER_20_32 VPWR VGND sg13cmos5l_decap_8
XFILLER_1_945 VPWR VGND sg13cmos5l_decap_8
XFILLER_0_455 VPWR VGND sg13cmos5l_decap_8
XFILLER_49_949 VPWR VGND sg13cmos5l_decap_8
XFILLER_29_74 VPWR VGND sg13cmos5l_decap_8
XFILLER_48_448 VPWR VGND sg13cmos5l_decap_8
XFILLER_17_802 VPWR VGND sg13cmos5l_decap_8
XFILLER_29_662 VPWR VGND sg13cmos5l_decap_8
XFILLER_16_312 VPWR VGND sg13cmos5l_decap_8
XFILLER_28_172 VPWR VGND sg13cmos5l_decap_8
XFILLER_44_665 VPWR VGND sg13cmos5l_decap_8
XFILLER_17_879 VPWR VGND sg13cmos5l_decap_8
XFILLER_32_816 VPWR VGND sg13cmos5l_decap_8
XFILLER_31_315 VPWR VGND sg13cmos5l_decap_8
XFILLER_45_84 VPWR VGND sg13cmos5l_decap_8
XFILLER_43_175 VPWR VGND sg13cmos5l_decap_8
XFILLER_8_522 VPWR VGND sg13cmos5l_decap_8
XFILLER_40_882 VPWR VGND sg13cmos5l_decap_8
XFILLER_8_599 VPWR VGND sg13cmos5l_decap_8
XFILLER_6_67 VPWR VGND sg13cmos5l_decap_8
XFILLER_20_4 VPWR VGND sg13cmos5l_decap_8
XFILLER_6_1005 VPWR VGND sg13cmos5l_decap_8
XFILLER_39_448 VPWR VGND sg13cmos5l_decap_8
XFILLER_26_109 VPWR VGND sg13cmos5l_decap_8
XFILLER_19_172 VPWR VGND sg13cmos5l_decap_8
XFILLER_34_175 VPWR VGND sg13cmos5l_decap_8
XFILLER_35_676 VPWR VGND sg13cmos5l_decap_8
XFILLER_23_816 VPWR VGND sg13cmos5l_decap_8
XFILLER_22_326 VPWR VGND sg13cmos5l_decap_8
XFILLER_31_893 VPWR VGND sg13cmos5l_decap_8
XFILLER_44_1022 VPWR VGND sg13cmos5l_decap_8
XFILLER_15_32 VPWR VGND sg13cmos5l_decap_8
XFILLER_14_816 VPWR VGND sg13cmos5l_decap_8
XFILLER_26_676 VPWR VGND sg13cmos5l_decap_8
XFILLER_41_602 VPWR VGND sg13cmos5l_decap_8
XFILLER_13_326 VPWR VGND sg13cmos5l_decap_8
XFILLER_40_112 VPWR VGND sg13cmos5l_decap_8
XFILLER_25_186 VPWR VGND sg13cmos5l_decap_8
XFILLER_15_98 VPWR VGND sg13cmos5l_decap_8
XFILLER_41_679 VPWR VGND sg13cmos5l_decap_8
XFILLER_40_189 VPWR VGND sg13cmos5l_decap_8
XFILLER_22_893 VPWR VGND sg13cmos5l_decap_8
XFILLER_31_42 VPWR VGND sg13cmos5l_decap_8
XFILLER_5_536 VPWR VGND sg13cmos5l_decap_8
Xoutput7 uio_out[4] _12_/A VPWR VGND sg13cmos5l_buf_1
XFILLER_1_742 VPWR VGND sg13cmos5l_decap_8
XFILLER_0_252 VPWR VGND sg13cmos5l_decap_8
XFILLER_49_746 VPWR VGND sg13cmos5l_decap_8
XFILLER_48_245 VPWR VGND sg13cmos5l_decap_8
XFILLER_45_952 VPWR VGND sg13cmos5l_decap_8
XFILLER_17_676 VPWR VGND sg13cmos5l_decap_8
XFILLER_32_613 VPWR VGND sg13cmos5l_decap_8
XFILLER_44_462 VPWR VGND sg13cmos5l_decap_8
XFILLER_16_186 VPWR VGND sg13cmos5l_decap_8
XFILLER_31_112 VPWR VGND sg13cmos5l_decap_8
XFILLER_12_370 VPWR VGND sg13cmos5l_decap_8
XFILLER_13_893 VPWR VGND sg13cmos5l_decap_8
XFILLER_31_189 VPWR VGND sg13cmos5l_decap_8
XFILLER_9_886 VPWR VGND sg13cmos5l_decap_8
XFILLER_8_396 VPWR VGND sg13cmos5l_decap_8
XFILLER_28_1028 VPWR VGND sg13cmos5l_fill_1
XFILLER_39_245 VPWR VGND sg13cmos5l_decap_8
XFILLER_36_963 VPWR VGND sg13cmos5l_decap_8
XFILLER_23_613 VPWR VGND sg13cmos5l_decap_8
XFILLER_22_123 VPWR VGND sg13cmos5l_decap_8
XFILLER_31_690 VPWR VGND sg13cmos5l_decap_8
XFILLER_46_749 VPWR VGND sg13cmos5l_decap_8
XFILLER_27_963 VPWR VGND sg13cmos5l_decap_8
XFILLER_45_259 VPWR VGND sg13cmos5l_decap_8
XFILLER_14_613 VPWR VGND sg13cmos5l_decap_8
XFILLER_26_53 VPWR VGND sg13cmos5l_decap_8
XFILLER_42_966 VPWR VGND sg13cmos5l_decap_8
XFILLER_13_123 VPWR VGND sg13cmos5l_decap_8
XFILLER_41_476 VPWR VGND sg13cmos5l_decap_8
XFILLER_10_830 VPWR VGND sg13cmos5l_decap_8
XFILLER_22_690 VPWR VGND sg13cmos5l_decap_8
XFILLER_42_63 VPWR VGND sg13cmos5l_decap_8
XFILLER_6_823 VPWR VGND sg13cmos5l_decap_8
XFILLER_5_333 VPWR VGND sg13cmos5l_decap_8
XFILLER_3_46 VPWR VGND sg13cmos5l_decap_8
XFILLER_49_543 VPWR VGND sg13cmos5l_decap_8
XFILLER_3_1019 VPWR VGND sg13cmos5l_decap_8
XFILLER_37_749 VPWR VGND sg13cmos5l_decap_8
XFILLER_18_963 VPWR VGND sg13cmos5l_decap_8
XFILLER_36_259 VPWR VGND sg13cmos5l_decap_8
XFILLER_33_900 VPWR VGND sg13cmos5l_decap_8
XFILLER_33_977 VPWR VGND sg13cmos5l_decap_8
XFILLER_20_627 VPWR VGND sg13cmos5l_decap_8
XFILLER_13_690 VPWR VGND sg13cmos5l_decap_8
XFILLER_9_683 VPWR VGND sg13cmos5l_decap_8
XFILLER_8_193 VPWR VGND sg13cmos5l_decap_8
XFILLER_27_259 VPWR VGND sg13cmos5l_decap_8
XFILLER_36_760 VPWR VGND sg13cmos5l_decap_8
XFILLER_24_900 VPWR VGND sg13cmos5l_decap_8
XFILLER_24_977 VPWR VGND sg13cmos5l_decap_8
XFILLER_11_627 VPWR VGND sg13cmos5l_decap_8
XFILLER_7_609 VPWR VGND sg13cmos5l_decap_8
XFILLER_10_137 VPWR VGND sg13cmos5l_decap_8
XFILLER_12_55 VPWR VGND sg13cmos5l_decap_8
XFILLER_3_837 VPWR VGND sg13cmos5l_decap_8
XFILLER_2_347 VPWR VGND sg13cmos5l_decap_8
XFILLER_37_63 VPWR VGND sg13cmos5l_decap_8
XFILLER_46_546 VPWR VGND sg13cmos5l_decap_8
XFILLER_15_900 VPWR VGND sg13cmos5l_decap_8
XFILLER_27_760 VPWR VGND sg13cmos5l_decap_8
XFILLER_26_270 VPWR VGND sg13cmos5l_decap_8
XFILLER_42_763 VPWR VGND sg13cmos5l_decap_8
XFILLER_15_977 VPWR VGND sg13cmos5l_decap_8
XFILLER_18_1005 VPWR VGND sg13cmos5l_decap_8
XFILLER_30_914 VPWR VGND sg13cmos5l_decap_8
XFILLER_41_273 VPWR VGND sg13cmos5l_decap_8
XFILLER_6_620 VPWR VGND sg13cmos5l_decap_8
XFILLER_5_130 VPWR VGND sg13cmos5l_decap_8
XFILLER_6_697 VPWR VGND sg13cmos5l_decap_8
XFILLER_49_340 VPWR VGND sg13cmos5l_decap_8
XFILLER_37_546 VPWR VGND sg13cmos5l_decap_8
XFILLER_18_760 VPWR VGND sg13cmos5l_decap_8
XFILLER_24_207 VPWR VGND sg13cmos5l_decap_8
XFILLER_33_774 VPWR VGND sg13cmos5l_decap_8
XFILLER_21_914 VPWR VGND sg13cmos5l_decap_8
XFILLER_32_273 VPWR VGND sg13cmos5l_decap_8
XFILLER_12_914 VPWR VGND sg13cmos5l_decap_8
XFILLER_24_774 VPWR VGND sg13cmos5l_decap_8
XFILLER_7_406 VPWR VGND sg13cmos5l_decap_8
XFILLER_8_907 VPWR VGND sg13cmos5l_decap_8
XFILLER_23_32 VPWR VGND sg13cmos5l_decap_8
XFILLER_23_284 VPWR VGND sg13cmos5l_decap_8
XFILLER_20_991 VPWR VGND sg13cmos5l_decap_8
XFILLER_3_634 VPWR VGND sg13cmos5l_decap_8
XFILLER_2_144 VPWR VGND sg13cmos5l_decap_8
XFILLER_47_833 VPWR VGND sg13cmos5l_decap_8
XFILLER_48_84 VPWR VGND sg13cmos5l_decap_8
XFILLER_0_14 VPWR VGND sg13cmos5l_decap_8
XFILLER_46_343 VPWR VGND sg13cmos5l_decap_8
XFILLER_14_273 VPWR VGND sg13cmos5l_decap_8
XFILLER_9_34 VPWR VGND sg13cmos5l_decap_8
XFILLER_15_774 VPWR VGND sg13cmos5l_decap_8
XFILLER_30_711 VPWR VGND sg13cmos5l_decap_8
XFILLER_42_560 VPWR VGND sg13cmos5l_decap_8
XFILLER_30_788 VPWR VGND sg13cmos5l_decap_8
XFILLER_11_991 VPWR VGND sg13cmos5l_decap_8
XFILLER_7_973 VPWR VGND sg13cmos5l_decap_8
XFILLER_6_494 VPWR VGND sg13cmos5l_decap_8
XFILLER_38_833 VPWR VGND sg13cmos5l_decap_8
XFILLER_37_343 VPWR VGND sg13cmos5l_decap_8
XFILLER_21_711 VPWR VGND sg13cmos5l_decap_8
XFILLER_20_221 VPWR VGND sg13cmos5l_decap_8
XFILLER_21_788 VPWR VGND sg13cmos5l_decap_8
XFILLER_20_298 VPWR VGND sg13cmos5l_decap_8
XFILLER_0_637 VPWR VGND sg13cmos5l_decap_8
XFILLER_18_32 VPWR VGND sg13cmos5l_decap_8
XFILLER_29_844 VPWR VGND sg13cmos5l_decap_8
XFILLER_28_354 VPWR VGND sg13cmos5l_decap_8
XFILLER_44_847 VPWR VGND sg13cmos5l_decap_8
XFILLER_43_357 VPWR VGND sg13cmos5l_decap_8
XFILLER_12_711 VPWR VGND sg13cmos5l_decap_8
XFILLER_34_42 VPWR VGND sg13cmos5l_decap_8
XFILLER_8_704 VPWR VGND sg13cmos5l_decap_8
XFILLER_15_1019 VPWR VGND sg13cmos5l_decap_8
XFILLER_11_265 VPWR VGND sg13cmos5l_decap_8
XFILLER_7_203 VPWR VGND sg13cmos5l_decap_8
XFILLER_12_788 VPWR VGND sg13cmos5l_decap_8
XFILLER_4_921 VPWR VGND sg13cmos5l_decap_8
XFILLER_3_431 VPWR VGND sg13cmos5l_decap_8
XFILLER_4_998 VPWR VGND sg13cmos5l_decap_8
XFILLER_47_630 VPWR VGND sg13cmos5l_decap_8
XFILLER_19_354 VPWR VGND sg13cmos5l_decap_8
XFILLER_46_140 VPWR VGND sg13cmos5l_decap_8
XFILLER_35_858 VPWR VGND sg13cmos5l_decap_8
XFILLER_34_357 VPWR VGND sg13cmos5l_decap_8
XFILLER_7_770 VPWR VGND sg13cmos5l_decap_8
XFILLER_6_291 VPWR VGND sg13cmos5l_decap_8
XFILLER_41_0 VPWR VGND sg13cmos5l_decap_8
XFILLER_38_630 VPWR VGND sg13cmos5l_decap_8
XFILLER_37_140 VPWR VGND sg13cmos5l_decap_8
XFILLER_26_858 VPWR VGND sg13cmos5l_decap_8
XFILLER_38_1008 VPWR VGND sg13cmos5l_decap_8
XFILLER_25_368 VPWR VGND sg13cmos5l_decap_8
XFILLER_5_718 VPWR VGND sg13cmos5l_decap_8
XFILLER_4_228 VPWR VGND sg13cmos5l_decap_8
XFILLER_20_11 VPWR VGND sg13cmos5l_decap_8
XFILLER_20_88 VPWR VGND sg13cmos5l_decap_8
XFILLER_1_924 VPWR VGND sg13cmos5l_decap_8
XFILLER_0_434 VPWR VGND sg13cmos5l_decap_8
XFILLER_49_928 VPWR VGND sg13cmos5l_decap_8
XFILLER_29_53 VPWR VGND sg13cmos5l_decap_8
XFILLER_48_427 VPWR VGND sg13cmos5l_decap_8
XFILLER_29_641 VPWR VGND sg13cmos5l_decap_8
XFILLER_21_1012 VPWR VGND sg13cmos5l_decap_8
XFILLER_28_151 VPWR VGND sg13cmos5l_decap_8
XFILLER_44_644 VPWR VGND sg13cmos5l_decap_8
XFILLER_17_858 VPWR VGND sg13cmos5l_decap_8
XFILLER_45_63 VPWR VGND sg13cmos5l_decap_8
XFILLER_16_368 VPWR VGND sg13cmos5l_decap_8
XFILLER_43_154 VPWR VGND sg13cmos5l_decap_8
XFILLER_8_501 VPWR VGND sg13cmos5l_decap_8
XFILLER_40_861 VPWR VGND sg13cmos5l_decap_8
XFILLER_8_578 VPWR VGND sg13cmos5l_decap_8
XFILLER_6_46 VPWR VGND sg13cmos5l_decap_8
XFILLER_4_795 VPWR VGND sg13cmos5l_decap_8
XFILLER_6_1028 VPWR VGND sg13cmos5l_fill_1
XFILLER_13_4 VPWR VGND sg13cmos5l_decap_8
XFILLER_39_427 VPWR VGND sg13cmos5l_decap_8
XFILLER_48_994 VPWR VGND sg13cmos5l_decap_8
XFILLER_19_151 VPWR VGND sg13cmos5l_decap_8
XFILLER_35_655 VPWR VGND sg13cmos5l_decap_8
XFILLER_34_154 VPWR VGND sg13cmos5l_decap_8
XFILLER_22_305 VPWR VGND sg13cmos5l_decap_8
XFILLER_31_872 VPWR VGND sg13cmos5l_decap_8
XFILLER_30_371 VPWR VGND sg13cmos5l_decap_8
XFILLER_44_1001 VPWR VGND sg13cmos5l_decap_8
XFILLER_39_994 VPWR VGND sg13cmos5l_decap_8
XFILLER_26_655 VPWR VGND sg13cmos5l_decap_8
XFILLER_13_305 VPWR VGND sg13cmos5l_decap_8
XFILLER_15_11 VPWR VGND sg13cmos5l_decap_8
XFILLER_25_165 VPWR VGND sg13cmos5l_decap_8
XFILLER_41_658 VPWR VGND sg13cmos5l_decap_8
XFILLER_15_77 VPWR VGND sg13cmos5l_decap_8
XFILLER_40_168 VPWR VGND sg13cmos5l_decap_8
XFILLER_22_872 VPWR VGND sg13cmos5l_decap_8
XFILLER_21_382 VPWR VGND sg13cmos5l_decap_8
XFILLER_31_21 VPWR VGND sg13cmos5l_decap_8
XFILLER_5_515 VPWR VGND sg13cmos5l_decap_8
XFILLER_31_98 VPWR VGND sg13cmos5l_decap_8
Xoutput10 uio_out[7] _15_/A VPWR VGND sg13cmos5l_buf_1
Xoutput8 uio_out[5] _13_/A VPWR VGND sg13cmos5l_buf_1
XFILLER_1_721 VPWR VGND sg13cmos5l_decap_8
XFILLER_49_725 VPWR VGND sg13cmos5l_decap_8
XFILLER_0_231 VPWR VGND sg13cmos5l_decap_8
XFILLER_1_798 VPWR VGND sg13cmos5l_decap_8
XFILLER_48_224 VPWR VGND sg13cmos5l_decap_8
XFILLER_45_931 VPWR VGND sg13cmos5l_decap_8
XFILLER_17_655 VPWR VGND sg13cmos5l_decap_8
XFILLER_44_441 VPWR VGND sg13cmos5l_decap_8
XFILLER_16_165 VPWR VGND sg13cmos5l_decap_8
XFILLER_13_872 VPWR VGND sg13cmos5l_decap_8
XFILLER_20_809 VPWR VGND sg13cmos5l_decap_8
XFILLER_31_168 VPWR VGND sg13cmos5l_decap_8
XFILLER_32_669 VPWR VGND sg13cmos5l_decap_8
XFILLER_9_865 VPWR VGND sg13cmos5l_decap_8
XFILLER_8_375 VPWR VGND sg13cmos5l_decap_8
XFILLER_4_592 VPWR VGND sg13cmos5l_decap_8
XFILLER_39_224 VPWR VGND sg13cmos5l_decap_8
XFILLER_48_791 VPWR VGND sg13cmos5l_decap_8
XFILLER_36_942 VPWR VGND sg13cmos5l_decap_8
XFILLER_22_102 VPWR VGND sg13cmos5l_decap_8
XFILLER_11_809 VPWR VGND sg13cmos5l_decap_8
XFILLER_23_669 VPWR VGND sg13cmos5l_decap_8
XFILLER_10_319 VPWR VGND sg13cmos5l_decap_8
XFILLER_22_179 VPWR VGND sg13cmos5l_decap_8
XFILLER_2_529 VPWR VGND sg13cmos5l_decap_8
XFILLER_46_728 VPWR VGND sg13cmos5l_decap_8
XFILLER_26_32 VPWR VGND sg13cmos5l_decap_8
XFILLER_27_942 VPWR VGND sg13cmos5l_decap_8
XFILLER_39_791 VPWR VGND sg13cmos5l_decap_8
XFILLER_45_238 VPWR VGND sg13cmos5l_decap_8
XFILLER_42_945 VPWR VGND sg13cmos5l_decap_8
XFILLER_13_102 VPWR VGND sg13cmos5l_decap_8
XFILLER_14_669 VPWR VGND sg13cmos5l_decap_8
XFILLER_41_455 VPWR VGND sg13cmos5l_decap_8
XFILLER_13_179 VPWR VGND sg13cmos5l_decap_8
XFILLER_9_139 VPWR VGND sg13cmos5l_decap_8
XFILLER_42_42 VPWR VGND sg13cmos5l_decap_8
XFILLER_6_802 VPWR VGND sg13cmos5l_decap_8
XFILLER_5_312 VPWR VGND sg13cmos5l_decap_8
XFILLER_10_886 VPWR VGND sg13cmos5l_decap_8
XFILLER_6_879 VPWR VGND sg13cmos5l_decap_8
XFILLER_5_389 VPWR VGND sg13cmos5l_decap_8
XFILLER_3_25 VPWR VGND sg13cmos5l_decap_8
XFILLER_1_595 VPWR VGND sg13cmos5l_decap_8
XFILLER_49_522 VPWR VGND sg13cmos5l_decap_8
XFILLER_37_728 VPWR VGND sg13cmos5l_decap_8
XFILLER_49_599 VPWR VGND sg13cmos5l_decap_8
XFILLER_18_942 VPWR VGND sg13cmos5l_decap_8
XFILLER_36_238 VPWR VGND sg13cmos5l_decap_8
XFILLER_33_956 VPWR VGND sg13cmos5l_decap_8
XFILLER_20_606 VPWR VGND sg13cmos5l_decap_8
XFILLER_9_662 VPWR VGND sg13cmos5l_decap_8
XFILLER_8_172 VPWR VGND sg13cmos5l_decap_8
XFILLER_41_1015 VPWR VGND sg13cmos5l_decap_8
XFILLER_28_739 VPWR VGND sg13cmos5l_decap_8
XFILLER_27_238 VPWR VGND sg13cmos5l_decap_8
XFILLER_24_956 VPWR VGND sg13cmos5l_decap_8
XFILLER_11_606 VPWR VGND sg13cmos5l_decap_8
XFILLER_10_116 VPWR VGND sg13cmos5l_decap_8
XFILLER_6_109 VPWR VGND sg13cmos5l_decap_8
XFILLER_12_34 VPWR VGND sg13cmos5l_decap_8
XFILLER_3_816 VPWR VGND sg13cmos5l_decap_8
XFILLER_2_326 VPWR VGND sg13cmos5l_decap_8
XFILLER_19_739 VPWR VGND sg13cmos5l_decap_8
XFILLER_37_42 VPWR VGND sg13cmos5l_decap_8
XFILLER_46_525 VPWR VGND sg13cmos5l_decap_8
XFILLER_18_249 VPWR VGND sg13cmos5l_decap_8
XFILLER_42_742 VPWR VGND sg13cmos5l_decap_8
XFILLER_15_956 VPWR VGND sg13cmos5l_decap_8
XFILLER_18_1028 VPWR VGND sg13cmos5l_fill_1
XFILLER_41_252 VPWR VGND sg13cmos5l_decap_8
XFILLER_10_683 VPWR VGND sg13cmos5l_decap_8
XFILLER_6_676 VPWR VGND sg13cmos5l_decap_8
XFILLER_5_186 VPWR VGND sg13cmos5l_decap_8
XFILLER_45_7 VPWR VGND sg13cmos5l_decap_8
XFILLER_2_893 VPWR VGND sg13cmos5l_decap_8
XFILLER_1_392 VPWR VGND sg13cmos5l_decap_8
XFILLER_37_525 VPWR VGND sg13cmos5l_decap_8
XFILLER_49_396 VPWR VGND sg13cmos5l_decap_8
XFILLER_17_293 VPWR VGND sg13cmos5l_decap_8
XFILLER_33_753 VPWR VGND sg13cmos5l_decap_8
XFILLER_32_252 VPWR VGND sg13cmos5l_decap_8
XFILLER_0_819 VPWR VGND sg13cmos5l_decap_8
XFILLER_43_539 VPWR VGND sg13cmos5l_decap_8
XFILLER_24_753 VPWR VGND sg13cmos5l_decap_8
XFILLER_23_11 VPWR VGND sg13cmos5l_decap_8
XFILLER_23_263 VPWR VGND sg13cmos5l_decap_8
XFILLER_20_970 VPWR VGND sg13cmos5l_decap_8
XFILLER_23_88 VPWR VGND sg13cmos5l_decap_8
XFILLER_3_613 VPWR VGND sg13cmos5l_decap_8
XFILLER_2_123 VPWR VGND sg13cmos5l_decap_8
XFILLER_47_812 VPWR VGND sg13cmos5l_decap_8
XFILLER_48_63 VPWR VGND sg13cmos5l_decap_8
XFILLER_46_322 VPWR VGND sg13cmos5l_decap_8
XFILLER_47_889 VPWR VGND sg13cmos5l_decap_8
XFILLER_46_399 VPWR VGND sg13cmos5l_decap_8
XFILLER_15_753 VPWR VGND sg13cmos5l_decap_8
XFILLER_14_252 VPWR VGND sg13cmos5l_decap_8
XFILLER_9_13 VPWR VGND sg13cmos5l_decap_8
XFILLER_11_970 VPWR VGND sg13cmos5l_decap_8
XFILLER_30_767 VPWR VGND sg13cmos5l_decap_8
XFILLER_7_952 VPWR VGND sg13cmos5l_decap_8
XFILLER_6_473 VPWR VGND sg13cmos5l_decap_8
XFILLER_9_1026 VPWR VGND sg13cmos5l_fill_2
XFILLER_2_690 VPWR VGND sg13cmos5l_decap_8
XFILLER_38_812 VPWR VGND sg13cmos5l_decap_8
XFILLER_37_322 VPWR VGND sg13cmos5l_decap_8
XFILLER_49_193 VPWR VGND sg13cmos5l_decap_8
XFILLER_38_889 VPWR VGND sg13cmos5l_decap_8
XFILLER_37_399 VPWR VGND sg13cmos5l_decap_8
XFILLER_20_200 VPWR VGND sg13cmos5l_decap_8
XFILLER_21_767 VPWR VGND sg13cmos5l_decap_8
XFILLER_20_277 VPWR VGND sg13cmos5l_decap_8
XFILLER_0_616 VPWR VGND sg13cmos5l_decap_8
XFILLER_48_609 VPWR VGND sg13cmos5l_decap_8
XFILLER_29_823 VPWR VGND sg13cmos5l_decap_8
XFILLER_47_119 VPWR VGND sg13cmos5l_decap_8
XFILLER_18_11 VPWR VGND sg13cmos5l_decap_8
XFILLER_28_333 VPWR VGND sg13cmos5l_decap_8
XFILLER_44_826 VPWR VGND sg13cmos5l_decap_8
XFILLER_18_88 VPWR VGND sg13cmos5l_decap_8
XFILLER_34_21 VPWR VGND sg13cmos5l_decap_8
XFILLER_43_336 VPWR VGND sg13cmos5l_decap_8
XFILLER_34_98 VPWR VGND sg13cmos5l_decap_8
XFILLER_11_244 VPWR VGND sg13cmos5l_decap_8
XFILLER_12_767 VPWR VGND sg13cmos5l_decap_8
XFILLER_7_259 VPWR VGND sg13cmos5l_decap_8
XFILLER_4_900 VPWR VGND sg13cmos5l_decap_8
XFILLER_3_410 VPWR VGND sg13cmos5l_decap_8
XFILLER_4_977 VPWR VGND sg13cmos5l_decap_8
XFILLER_3_487 VPWR VGND sg13cmos5l_decap_8
XFILLER_1_0 VPWR VGND sg13cmos5l_decap_8
XFILLER_39_609 VPWR VGND sg13cmos5l_decap_8
XFILLER_38_119 VPWR VGND sg13cmos5l_decap_8
XFILLER_19_333 VPWR VGND sg13cmos5l_decap_8
XFILLER_47_686 VPWR VGND sg13cmos5l_decap_8
XFILLER_35_837 VPWR VGND sg13cmos5l_decap_8
XFILLER_34_336 VPWR VGND sg13cmos5l_decap_8
XFILLER_46_196 VPWR VGND sg13cmos5l_decap_8
XFILLER_6_270 VPWR VGND sg13cmos5l_decap_8
XFILLER_34_0 VPWR VGND sg13cmos5l_decap_8
XFILLER_1_91 VPWR VGND sg13cmos5l_decap_8
XFILLER_38_686 VPWR VGND sg13cmos5l_decap_8
XFILLER_26_837 VPWR VGND sg13cmos5l_decap_8
XFILLER_37_196 VPWR VGND sg13cmos5l_decap_8
XFILLER_25_347 VPWR VGND sg13cmos5l_decap_8
XFILLER_4_207 VPWR VGND sg13cmos5l_decap_8
XFILLER_20_67 VPWR VGND sg13cmos5l_decap_8
XFILLER_1_903 VPWR VGND sg13cmos5l_decap_8
XFILLER_0_413 VPWR VGND sg13cmos5l_decap_8
XFILLER_49_907 VPWR VGND sg13cmos5l_decap_8
XFILLER_29_32 VPWR VGND sg13cmos5l_decap_8
XFILLER_48_406 VPWR VGND sg13cmos5l_decap_8
XFILLER_29_620 VPWR VGND sg13cmos5l_decap_8
XFILLER_28_130 VPWR VGND sg13cmos5l_decap_8
XFILLER_17_837 VPWR VGND sg13cmos5l_decap_8
XFILLER_29_697 VPWR VGND sg13cmos5l_decap_8
XFILLER_44_623 VPWR VGND sg13cmos5l_decap_8
XFILLER_16_347 VPWR VGND sg13cmos5l_decap_8
XFILLER_43_133 VPWR VGND sg13cmos5l_decap_8
XFILLER_45_42 VPWR VGND sg13cmos5l_decap_8
XFILLER_40_840 VPWR VGND sg13cmos5l_decap_8
XFILLER_8_557 VPWR VGND sg13cmos5l_decap_8
XFILLER_6_25 VPWR VGND sg13cmos5l_decap_8
XFILLER_4_774 VPWR VGND sg13cmos5l_decap_8
XFILLER_3_284 VPWR VGND sg13cmos5l_decap_8
XFILLER_39_406 VPWR VGND sg13cmos5l_decap_8
XFILLER_0_980 VPWR VGND sg13cmos5l_decap_8
XFILLER_48_973 VPWR VGND sg13cmos5l_decap_8
XFILLER_19_130 VPWR VGND sg13cmos5l_decap_8
XFILLER_47_483 VPWR VGND sg13cmos5l_decap_8
XFILLER_34_133 VPWR VGND sg13cmos5l_decap_8
XFILLER_35_634 VPWR VGND sg13cmos5l_decap_8
XFILLER_31_851 VPWR VGND sg13cmos5l_decap_8
XFILLER_30_350 VPWR VGND sg13cmos5l_decap_8
XFILLER_39_973 VPWR VGND sg13cmos5l_decap_8
XFILLER_38_483 VPWR VGND sg13cmos5l_decap_8
XFILLER_26_634 VPWR VGND sg13cmos5l_decap_8
XFILLER_25_144 VPWR VGND sg13cmos5l_decap_8
XFILLER_41_637 VPWR VGND sg13cmos5l_decap_8
XFILLER_15_67 VPWR VGND sg13cmos5l_decap_4
XFILLER_40_147 VPWR VGND sg13cmos5l_decap_8
XFILLER_22_851 VPWR VGND sg13cmos5l_decap_8
XFILLER_21_361 VPWR VGND sg13cmos5l_decap_8
XFILLER_31_77 VPWR VGND sg13cmos5l_decap_8
Xoutput9 uio_out[6] _14_/A VPWR VGND sg13cmos5l_buf_1
Xoutput11 uo_out[0] _08_/X VPWR VGND sg13cmos5l_buf_1
XFILLER_1_700 VPWR VGND sg13cmos5l_decap_8
XFILLER_0_210 VPWR VGND sg13cmos5l_decap_8
XFILLER_49_704 VPWR VGND sg13cmos5l_decap_8
XFILLER_1_777 VPWR VGND sg13cmos5l_decap_8
XFILLER_0_287 VPWR VGND sg13cmos5l_decap_8
XFILLER_48_203 VPWR VGND sg13cmos5l_decap_8
XFILLER_45_910 VPWR VGND sg13cmos5l_decap_8
XFILLER_17_634 VPWR VGND sg13cmos5l_decap_8
XFILLER_44_420 VPWR VGND sg13cmos5l_decap_8
XFILLER_45_987 VPWR VGND sg13cmos5l_decap_8
XFILLER_16_144 VPWR VGND sg13cmos5l_decap_8
XFILLER_32_648 VPWR VGND sg13cmos5l_decap_8
XFILLER_44_497 VPWR VGND sg13cmos5l_decap_8
XFILLER_13_851 VPWR VGND sg13cmos5l_decap_8
XFILLER_31_147 VPWR VGND sg13cmos5l_decap_8
XFILLER_9_844 VPWR VGND sg13cmos5l_decap_8
XFILLER_8_354 VPWR VGND sg13cmos5l_decap_8
XFILLER_4_571 VPWR VGND sg13cmos5l_decap_8
XFILLER_28_1019 VPWR VGND sg13cmos5l_decap_8
XFILLER_39_203 VPWR VGND sg13cmos5l_decap_8
XFILLER_48_770 VPWR VGND sg13cmos5l_decap_8
XFILLER_36_921 VPWR VGND sg13cmos5l_decap_8
XFILLER_47_280 VPWR VGND sg13cmos5l_decap_8
XFILLER_36_998 VPWR VGND sg13cmos5l_decap_8
XFILLER_23_648 VPWR VGND sg13cmos5l_decap_8
XFILLER_22_158 VPWR VGND sg13cmos5l_decap_8
XFILLER_11_1012 VPWR VGND sg13cmos5l_decap_8
XFILLER_2_508 VPWR VGND sg13cmos5l_decap_8
XFILLER_46_707 VPWR VGND sg13cmos5l_decap_8
XFILLER_39_770 VPWR VGND sg13cmos5l_decap_8
XFILLER_27_921 VPWR VGND sg13cmos5l_decap_8
XFILLER_45_217 VPWR VGND sg13cmos5l_decap_8
XFILLER_26_11 VPWR VGND sg13cmos5l_decap_8
XFILLER_38_280 VPWR VGND sg13cmos5l_decap_8
XFILLER_27_998 VPWR VGND sg13cmos5l_decap_8
XFILLER_42_924 VPWR VGND sg13cmos5l_decap_8
XFILLER_14_648 VPWR VGND sg13cmos5l_decap_8
XFILLER_26_88 VPWR VGND sg13cmos5l_decap_8
XFILLER_13_158 VPWR VGND sg13cmos5l_decap_8
XFILLER_41_434 VPWR VGND sg13cmos5l_decap_8
XFILLER_9_118 VPWR VGND sg13cmos5l_decap_8
XFILLER_42_21 VPWR VGND sg13cmos5l_decap_8
XFILLER_10_865 VPWR VGND sg13cmos5l_decap_8
XFILLER_42_98 VPWR VGND sg13cmos5l_decap_8
XFILLER_6_858 VPWR VGND sg13cmos5l_decap_8
XFILLER_5_368 VPWR VGND sg13cmos5l_decap_8
XFILLER_1_574 VPWR VGND sg13cmos5l_decap_8
XFILLER_49_501 VPWR VGND sg13cmos5l_decap_8
XFILLER_37_707 VPWR VGND sg13cmos5l_decap_8
XFILLER_18_921 VPWR VGND sg13cmos5l_decap_8
XFILLER_36_217 VPWR VGND sg13cmos5l_decap_8
XFILLER_49_578 VPWR VGND sg13cmos5l_decap_8
XFILLER_29_291 VPWR VGND sg13cmos5l_decap_8
XFILLER_45_784 VPWR VGND sg13cmos5l_decap_8
XFILLER_18_998 VPWR VGND sg13cmos5l_decap_8
XFILLER_33_935 VPWR VGND sg13cmos5l_decap_8
XFILLER_44_294 VPWR VGND sg13cmos5l_decap_8
XFILLER_34_1012 VPWR VGND sg13cmos5l_decap_8
XFILLER_9_641 VPWR VGND sg13cmos5l_decap_8
XFILLER_8_151 VPWR VGND sg13cmos5l_decap_8
XFILLER_27_217 VPWR VGND sg13cmos5l_decap_8
XFILLER_28_718 VPWR VGND sg13cmos5l_decap_8
XFILLER_24_935 VPWR VGND sg13cmos5l_decap_8
XFILLER_36_795 VPWR VGND sg13cmos5l_decap_8
XFILLER_35_294 VPWR VGND sg13cmos5l_decap_8
XFILLER_12_13 VPWR VGND sg13cmos5l_decap_8
XFILLER_2_305 VPWR VGND sg13cmos5l_decap_8
XFILLER_19_718 VPWR VGND sg13cmos5l_decap_8
XFILLER_37_21 VPWR VGND sg13cmos5l_decap_8
XFILLER_46_504 VPWR VGND sg13cmos5l_decap_8
XFILLER_18_228 VPWR VGND sg13cmos5l_decap_8
XFILLER_37_98 VPWR VGND sg13cmos5l_decap_8
XFILLER_15_935 VPWR VGND sg13cmos5l_decap_8
XFILLER_27_795 VPWR VGND sg13cmos5l_decap_8
XFILLER_42_721 VPWR VGND sg13cmos5l_decap_8
XFILLER_41_231 VPWR VGND sg13cmos5l_decap_8
XFILLER_42_798 VPWR VGND sg13cmos5l_decap_8
XFILLER_30_949 VPWR VGND sg13cmos5l_decap_8
XFILLER_10_662 VPWR VGND sg13cmos5l_decap_8
XFILLER_6_655 VPWR VGND sg13cmos5l_decap_8
XFILLER_5_165 VPWR VGND sg13cmos5l_decap_8
XFILLER_1_371 VPWR VGND sg13cmos5l_decap_8
XFILLER_2_872 VPWR VGND sg13cmos5l_decap_8
XFILLER_38_7 VPWR VGND sg13cmos5l_decap_8
XFILLER_37_504 VPWR VGND sg13cmos5l_decap_8
XFILLER_49_375 VPWR VGND sg13cmos5l_decap_8
XFILLER_17_272 VPWR VGND sg13cmos5l_decap_8
XFILLER_18_795 VPWR VGND sg13cmos5l_decap_8
XFILLER_45_581 VPWR VGND sg13cmos5l_decap_8
XFILLER_32_231 VPWR VGND sg13cmos5l_decap_8
XFILLER_33_732 VPWR VGND sg13cmos5l_decap_8
XFILLER_21_949 VPWR VGND sg13cmos5l_decap_8
XFILLER_43_518 VPWR VGND sg13cmos5l_decap_8
XFILLER_24_732 VPWR VGND sg13cmos5l_decap_8
XFILLER_23_242 VPWR VGND sg13cmos5l_decap_8
XFILLER_12_949 VPWR VGND sg13cmos5l_decap_8
XFILLER_23_67 VPWR VGND sg13cmos5l_decap_8
XFILLER_2_102 VPWR VGND sg13cmos5l_decap_8
XFILLER_3_4 VPWR VGND sg13cmos5l_decap_8
XFILLER_3_669 VPWR VGND sg13cmos5l_decap_8
XFILLER_2_179 VPWR VGND sg13cmos5l_decap_8
XFILLER_48_42 VPWR VGND sg13cmos5l_decap_8
XFILLER_46_301 VPWR VGND sg13cmos5l_decap_8
XFILLER_47_868 VPWR VGND sg13cmos5l_decap_8
XFILLER_0_49 VPWR VGND sg13cmos5l_decap_8
XFILLER_46_378 VPWR VGND sg13cmos5l_decap_8
XFILLER_14_231 VPWR VGND sg13cmos5l_decap_8
XFILLER_15_732 VPWR VGND sg13cmos5l_decap_8
XFILLER_9_69 VPWR VGND sg13cmos5l_decap_8
XFILLER_30_746 VPWR VGND sg13cmos5l_decap_8