*SPEF "ieee 1481-1999"
*DESIGN "counter"
*DATE "16:14:46 Tuesday July 21, 2026"
*VENDOR "The OpenROAD Project"
*PROGRAM "OpenROAD"
*VERSION "dcf36133a369abc8f3c5e5738cd4d82e4903c0e0"
*DESIGN_FLOW "NAME_SCOPE LOCAL" "PIN_CAP NONE"
*DIVIDER /
*DELIMITER :
*BUS_DELIMITER []
*T_UNIT 1 NS
*C_UNIT 1 PF
*R_UNIT 1 OHM
*L_UNIT 1 HENRY

*NAME_MAP
*3 clk_i
*4 count_o[0]
*5 count_o[1]
*6 count_o[2]
*7 count_o[3]
*8 count_o[4]
*9 count_o[5]
*10 count_o[6]
*11 count_o[7]
*12 enable_i
*13 rst_ni
*14 _00_
*15 _01_
*16 _02_
*17 _03_
*18 _04_
*19 _05_
*20 _06_
*21 _07_
*22 _08_
*23 _09_
*24 _10_
*25 _11_
*26 _12_
*27 _13_
*28 _14_
*29 _15_
*30 _16_
*31 _17_
*32 _18_
*33 _19_
*34 _20_
*35 _21_
*36 _22_
*37 _23_
*38 _24_
*39 _25_
*40 _26_
*41 _27_
*42 _28_
*43 _29_
*44 net
*45 net1
*46 net10
*47 net11
*48 net12
*49 net13
*50 net14
*51 net15
*52 net16
*53 net17
*54 net18
*55 net2
*56 net3
*57 net4
*58 net5
*59 net6
*60 net7
*61 net8
*62 net9
*63 FILLER_0_0
*64 FILLER_0_105
*65 FILLER_0_112
*66 FILLER_0_119
*67 FILLER_0_126
*68 FILLER_0_133
*69 FILLER_0_14
*70 FILLER_0_140
*71 FILLER_0_147
*72 FILLER_0_149
*73 FILLER_0_21
*74 FILLER_0_28
*75 FILLER_0_35
*76 FILLER_0_42
*77 FILLER_0_49
*78 FILLER_0_56
*79 FILLER_0_63
*80 FILLER_0_7
*81 FILLER_0_70
*82 FILLER_0_77
*83 FILLER_0_84
*84 FILLER_0_91
*85 FILLER_0_98
*86 FILLER_10_102
*87 FILLER_10_109
*88 FILLER_10_11
*89 FILLER_10_116
*90 FILLER_10_123
*91 FILLER_10_130
*92 FILLER_10_137
*93 FILLER_10_144
*94 FILLER_10_148
*95 FILLER_10_18
*96 FILLER_10_25
*97 FILLER_10_32
*98 FILLER_10_39
*99 FILLER_10_4
*100 FILLER_10_46
*101 FILLER_10_53
*102 FILLER_10_60
*103 FILLER_10_67
*104 FILLER_10_74
*105 FILLER_10_81
*106 FILLER_10_88
*107 FILLER_10_95
*108 FILLER_11_0
*109 FILLER_11_102
*110 FILLER_11_106
*111 FILLER_11_118
*112 FILLER_11_125
*113 FILLER_11_132
*114 FILLER_11_139
*115 FILLER_11_14
*116 FILLER_11_146
*117 FILLER_11_21
*118 FILLER_11_28
*119 FILLER_11_35
*120 FILLER_11_42
*121 FILLER_11_49
*122 FILLER_11_56
*123 FILLER_11_63
*124 FILLER_11_7
*125 FILLER_11_70
*126 FILLER_11_81
*127 FILLER_11_88
*128 FILLER_11_95
*129 FILLER_12_0
*130 FILLER_12_123
*131 FILLER_12_130
*132 FILLER_12_137
*133 FILLER_12_144
*134 FILLER_12_148
*135 FILLER_12_17
*136 FILLER_12_24
*137 FILLER_12_31
*138 FILLER_12_35
*139 FILLER_12_67
*140 FILLER_12_7
*141 FILLER_12_9
*142 FILLER_13_0
*143 FILLER_13_101
*144 FILLER_13_108
*145 FILLER_13_110
*146 FILLER_13_121
*147 FILLER_13_128
*148 FILLER_13_132
*149 FILLER_13_137
*150 FILLER_13_144
*151 FILLER_13_148
*152 FILLER_13_17
*153 FILLER_13_24
*154 FILLER_13_28
*155 FILLER_13_4
*156 FILLER_13_56
*157 FILLER_13_63
*158 FILLER_13_67
*159 FILLER_13_80
*160 FILLER_13_87
*161 FILLER_13_94
*162 FILLER_14_0
*163 FILLER_14_102
*164 FILLER_14_104
*165 FILLER_14_117
*166 FILLER_14_124
*167 FILLER_14_131
*168 FILLER_14_138
*169 FILLER_14_14
*170 FILLER_14_145
*171 FILLER_14_149
*172 FILLER_14_21
*173 FILLER_14_28
*174 FILLER_14_35
*175 FILLER_14_51
*176 FILLER_14_58
*177 FILLER_14_65
*178 FILLER_14_69
*179 FILLER_14_7
*180 FILLER_14_74
*181 FILLER_14_81
*182 FILLER_14_88
*183 FILLER_14_95
*184 FILLER_15_0
*185 FILLER_15_11
*186 FILLER_15_123
*187 FILLER_15_130
*188 FILLER_15_137
*189 FILLER_15_144
*190 FILLER_15_148
*191 FILLER_15_16
*192 FILLER_15_23
*193 FILLER_15_27
*194 FILLER_15_56
*195 FILLER_15_63
*196 FILLER_15_7
*197 FILLER_15_70
*198 FILLER_15_85
*199 FILLER_15_92
*200 FILLER_16_107
*201 FILLER_16_121
*202 FILLER_16_128
*203 FILLER_16_135
*204 FILLER_16_142
*205 FILLER_16_149
*206 FILLER_16_19
*207 FILLER_16_26
*208 FILLER_16_4
*209 FILLER_16_6
*210 FILLER_16_71
*211 FILLER_17_0
*212 FILLER_17_103
*213 FILLER_17_11
*214 FILLER_17_115
*215 FILLER_17_123
*216 FILLER_17_130
*217 FILLER_17_137
*218 FILLER_17_144
*219 FILLER_17_148
*220 FILLER_17_16
*221 FILLER_17_23
*222 FILLER_17_27
*223 FILLER_17_42
*224 FILLER_17_48
*225 FILLER_17_53
*226 FILLER_17_60
*227 FILLER_17_67
*228 FILLER_17_7
*229 FILLER_17_74
*230 FILLER_17_89
*231 FILLER_17_96
*232 FILLER_18_0
*233 FILLER_18_103
*234 FILLER_18_109
*235 FILLER_18_116
*236 FILLER_18_118
*237 FILLER_18_123
*238 FILLER_18_130
*239 FILLER_18_137
*240 FILLER_18_144
*241 FILLER_18_149
*242 FILLER_18_16
*243 FILLER_18_20
*244 FILLER_18_26
*245 FILLER_18_33
*246 FILLER_18_4
*247 FILLER_18_40
*248 FILLER_18_44
*249 FILLER_18_49
*250 FILLER_18_56
*251 FILLER_18_63
*252 FILLER_18_69
*253 FILLER_18_76
*254 FILLER_18_83
*255 FILLER_18_89
*256 FILLER_18_9
*257 FILLER_18_96
*258 FILLER_1_0
*259 FILLER_1_105
*260 FILLER_1_112
*261 FILLER_1_119
*262 FILLER_1_126
*263 FILLER_1_133
*264 FILLER_1_14
*265 FILLER_1_140
*266 FILLER_1_147
*267 FILLER_1_149
*268 FILLER_1_21
*269 FILLER_1_28
*270 FILLER_1_35
*271 FILLER_1_42
*272 FILLER_1_49
*273 FILLER_1_56
*274 FILLER_1_63
*275 FILLER_1_7
*276 FILLER_1_70
*277 FILLER_1_77
*278 FILLER_1_84
*279 FILLER_1_91
*280 FILLER_1_98
*281 FILLER_2_0
*282 FILLER_2_105
*283 FILLER_2_112
*284 FILLER_2_119
*285 FILLER_2_126
*286 FILLER_2_133
*287 FILLER_2_14
*288 FILLER_2_140
*289 FILLER_2_147
*290 FILLER_2_149
*291 FILLER_2_21
*292 FILLER_2_28
*293 FILLER_2_35
*294 FILLER_2_42
*295 FILLER_2_49
*296 FILLER_2_56
*297 FILLER_2_63
*298 FILLER_2_7
*299 FILLER_2_70
*300 FILLER_2_77
*301 FILLER_2_84
*302 FILLER_2_91
*303 FILLER_2_98
*304 FILLER_3_102
*305 FILLER_3_109
*306 FILLER_3_11
*307 FILLER_3_116
*308 FILLER_3_123
*309 FILLER_3_130
*310 FILLER_3_137
*311 FILLER_3_144
*312 FILLER_3_148
*313 FILLER_3_18
*314 FILLER_3_25
*315 FILLER_3_32
*316 FILLER_3_39
*317 FILLER_3_4
*318 FILLER_3_46
*319 FILLER_3_53
*320 FILLER_3_60
*321 FILLER_3_67
*322 FILLER_3_74
*323 FILLER_3_81
*324 FILLER_3_88
*325 FILLER_3_95
*326 FILLER_4_0
*327 FILLER_4_105
*328 FILLER_4_112
*329 FILLER_4_119
*330 FILLER_4_126
*331 FILLER_4_133
*332 FILLER_4_14
*333 FILLER_4_140
*334 FILLER_4_147
*335 FILLER_4_149
*336 FILLER_4_21
*337 FILLER_4_28
*338 FILLER_4_35
*339 FILLER_4_42
*340 FILLER_4_49
*341 FILLER_4_56
*342 FILLER_4_63
*343 FILLER_4_7
*344 FILLER_4_70
*345 FILLER_4_77
*346 FILLER_4_84
*347 FILLER_4_91
*348 FILLER_4_98
*349 FILLER_5_0
*350 FILLER_5_105
*351 FILLER_5_112
*352 FILLER_5_119
*353 FILLER_5_126
*354 FILLER_5_133
*355 FILLER_5_14
*356 FILLER_5_140
*357 FILLER_5_147
*358 FILLER_5_149
*359 FILLER_5_21
*360 FILLER_5_28
*361 FILLER_5_35
*362 FILLER_5_42
*363 FILLER_5_49
*364 FILLER_5_56
*365 FILLER_5_63
*366 FILLER_5_7
*367 FILLER_5_70
*368 FILLER_5_77
*369 FILLER_5_84
*370 FILLER_5_91
*371 FILLER_5_98
*372 FILLER_6_0
*373 FILLER_6_105
*374 FILLER_6_112
*375 FILLER_6_119
*376 FILLER_6_126
*377 FILLER_6_133
*378 FILLER_6_14
*379 FILLER_6_140
*380 FILLER_6_147
*381 FILLER_6_149
*382 FILLER_6_21
*383 FILLER_6_28
*384 FILLER_6_35
*385 FILLER_6_42
*386 FILLER_6_49
*387 FILLER_6_56
*388 FILLER_6_63
*389 FILLER_6_7
*390 FILLER_6_70
*391 FILLER_6_77
*392 FILLER_6_84
*393 FILLER_6_91
*394 FILLER_6_98
*395 FILLER_7_0
*396 FILLER_7_105
*397 FILLER_7_112
*398 FILLER_7_119
*399 FILLER_7_126
*400 FILLER_7_133
*401 FILLER_7_14
*402 FILLER_7_140
*403 FILLER_7_147
*404 FILLER_7_149
*405 FILLER_7_21
*406 FILLER_7_28
*407 FILLER_7_35
*408 FILLER_7_42
*409 FILLER_7_49
*410 FILLER_7_56
*411 FILLER_7_63
*412 FILLER_7_7
*413 FILLER_7_70
*414 FILLER_7_77
*415 FILLER_7_84
*416 FILLER_7_91
*417 FILLER_7_98
*418 FILLER_8_0
*419 FILLER_8_105
*420 FILLER_8_112
*421 FILLER_8_119
*422 FILLER_8_126
*423 FILLER_8_133
*424 FILLER_8_14
*425 FILLER_8_140
*426 FILLER_8_147
*427 FILLER_8_149
*428 FILLER_8_21
*429 FILLER_8_28
*430 FILLER_8_35
*431 FILLER_8_42
*432 FILLER_8_49
*433 FILLER_8_56
*434 FILLER_8_63
*435 FILLER_8_7
*436 FILLER_8_70
*437 FILLER_8_77
*438 FILLER_8_84
*439 FILLER_8_91
*440 FILLER_8_98
*441 FILLER_9_0
*442 FILLER_9_105
*443 FILLER_9_112
*444 FILLER_9_119
*445 FILLER_9_126
*446 FILLER_9_133
*447 FILLER_9_14
*448 FILLER_9_140
*449 FILLER_9_147
*450 FILLER_9_149
*451 FILLER_9_21
*452 FILLER_9_28
*453 FILLER_9_35
*454 FILLER_9_42
*455 FILLER_9_49
*456 FILLER_9_56
*457 FILLER_9_63
*458 FILLER_9_7
*459 FILLER_9_70
*460 FILLER_9_77
*461 FILLER_9_84
*462 FILLER_9_91
*463 FILLER_9_98
*464 _38_
*465 _39_
*466 _40_
*467 _41_
*468 _42_
*469 _43_
*470 _44_
*471 _45_
*472 _46_
*473 _47_
*474 _48_
*475 _49_
*476 _50_
*477 _51_
*478 _52_
*479 _53_
*480 _54_
*481 _55_
*482 _56_
*483 _57_
*484 _58_
*485 _59_
*486 _60_
*487 _61_
*488 _62_
*489 _63_
*490 _64_
*491 _65_
*492 _66_
*493 _67_
*494 _68_
*495 _68__19
*496 _69_
*497 _69__18
*498 _70_
*499 _70__16
*500 _71_
*501 _71__14
*502 _72_
*503 _72__12
*504 _73_
*505 _73__17
*506 _74_
*507 _74__13
*508 _75_
*509 _75__15
*510 input1
*511 input2
*512 input3
*513 output10
*514 output11
*515 output4
*516 output5
*517 output6
*518 output7
*519 output8
*520 output9

*PORTS
clk_i I
count_o[0] O
count_o[1] O
count_o[2] O
count_o[3] O
count_o[4] O
count_o[5] O
count_o[6] O
count_o[7] O
enable_i I
rst_ni I

*D_NET *3 0.000384561
*CONN
*P clk_i I
*I *510:A I *D sg13cmos5l_buf_1
*CAP
1 clk_i 0.00019228
2 *510:A 0.00019228
*RES
1 clk_i *510:A 42.4926 
*END

*D_NET *4 0.00049185
*CONN
*P count_o[0] O
*I *515:X O *D sg13cmos5l_buf_1
*CAP
1 count_o[0] 0.000245925
2 *515:X 0.000245925
*RES
1 *515:X count_o[0] 22.9973 
*END

*D_NET *5 0.000489762
*CONN
*P count_o[1] O
*I *516:X O *D sg13cmos5l_buf_1
*CAP
1 count_o[1] 0.000244881
2 *516:X 0.000244881
*RES
1 *516:X count_o[1] 22.6471 
*END

*D_NET *6 0.000494856
*CONN
*P count_o[2] O
*I *517:X O *D sg13cmos5l_buf_1
*CAP
1 count_o[2] 0.000247428
2 *517:X 0.000247428
*RES
1 *517:X count_o[2] 22.9973 
*END

*D_NET *7 0.00049185
*CONN
*P count_o[3] O
*I *518:X O *D sg13cmos5l_buf_1
*CAP
1 count_o[3] 0.000245925
2 *518:X 0.000245925
*RES
1 *518:X count_o[3] 22.9973 
*END

*D_NET *8 0.00049185
*CONN
*P count_o[4] O
*I *519:X O *D sg13cmos5l_buf_1
*CAP
1 count_o[4] 0.000245925
2 *519:X 0.000245925
*RES
1 *519:X count_o[4] 22.9973 
*END

*D_NET *9 0.000497016
*CONN
*P count_o[5] O
*I *520:X O *D sg13cmos5l_buf_1
*CAP
1 count_o[5] 0.000248508
2 *520:X 0.000248508
3 count_o[5] *520:A 0
*RES
1 *520:X count_o[5] 22.9973 
*END

*D_NET *10 0.00059492
*CONN
*P count_o[6] O
*I *513:X O *D sg13cmos5l_buf_1
*CAP
1 count_o[6] 0.00029746
2 *513:X 0.00029746
*RES
1 *513:X count_o[6] 23.5947 
*END

*D_NET *11 0.00049185
*CONN
*P count_o[7] O
*I *514:X O *D sg13cmos5l_buf_1
*CAP
1 count_o[7] 0.000245925
2 *514:X 0.000245925
*RES
1 *514:X count_o[7] 22.9973 
*END

*D_NET *12 0.000635506
*CONN
*P enable_i I
*I *511:A I *D sg13cmos5l_buf_1
*CAP
1 enable_i 0.000317753
2 *511:A 0.000317753
*RES
1 enable_i *511:A 43.8934 
*END

*D_NET *13 0.000715249
*CONN
*P rst_ni I
*I *512:A I *D sg13cmos5l_buf_1
*CAP
1 rst_ni 0.000357625
2 *512:A 0.000357625
*RES
1 rst_ni *512:A 44.223 
*END

*D_NET *14 0.00118123
*CONN
*I *494:D I *D sg13cmos5l_dfrbpq_1
*I *466:Y O *D sg13cmos5l_nor2_1
*CAP
1 *494:D 0
2 *466:Y 0.000590617
3 *14:8 0.000590617
4 *14:8 *465:B 0
5 *14:8 *466:A 0
*RES
1 *466:Y *14:8 45.7886 
2 *14:8 *494:D 40 
*END

*D_NET *15 0.00108745
*CONN
*I *496:D I *D sg13cmos5l_dfrbpq_1
*I *469:Y O *D sg13cmos5l_nor2_1
*CAP
1 *496:D 5.35604e-05
2 *469:Y 0.000426137
3 *15:10 0.000479697
4 *496:D *57:23 8.0216e-05
5 *15:10 *469:A 4.78359e-05
6 *15:10 *55:23 0
*RES
1 *469:Y *15:10 44.3775 
2 *15:10 *496:D 40.5356 
*END

*D_NET *16 0.000219757
*CONN
*I *498:D I *D sg13cmos5l_dfrbpq_1
*I *473:Y O *D sg13cmos5l_nor2_1
*CAP
1 *498:D 0.000109879
2 *473:Y 0.000109879
3 *498:D *473:B 0
4 *498:D *45:24 0
*RES
1 *473:Y *498:D 41.133 
*END

*D_NET *17 0.000613627
*CONN
*I *500:D I *D sg13cmos5l_dfrbpq_1
*I *476:Y O *D sg13cmos5l_nor2_1
*CAP
1 *500:D 0.000145914
2 *476:Y 0.000145914
3 *500:D *476:B 0.000241716
4 *500:D *500:RESET_B 0
5 *500:D *45:14 8.00842e-05
*RES
1 *476:Y *500:D 41.6171 
*END

*D_NET *18 0.000449758
*CONN
*I *502:D I *D sg13cmos5l_dfrbpq_1
*I *480:Y O *D sg13cmos5l_a21oi_1
*CAP
1 *502:D 0.000224879
2 *480:Y 0.000224879
3 *502:D *480:A1 0
4 *502:D *480:B1 0
*RES
1 *480:Y *502:D 42.3793 
*END

*D_NET *19 0.000610018
*CONN
*I *504:D I *D sg13cmos5l_dfrbpq_1
*I *484:Y O *D sg13cmos5l_a21oi_1
*CAP
1 *504:D 0.000264945
2 *484:Y 0.000264945
3 *504:D *484:A2 0
4 *504:D *504:RESET_B 0
5 *504:D *61:70 8.01283e-05
6 *504:D *62:16 0
*RES
1 *484:Y *504:D 42.4617 
*END

*D_NET *20 0.00191497
*CONN
*I *506:D I *D sg13cmos5l_dfrbpq_1
*I *488:Y O *D sg13cmos5l_a21oi_1
*CAP
1 *506:D 0.000235708
2 *488:Y 0.000355789
3 *20:10 0.000591497
4 *506:D *506:RESET_B 0.000337824
5 *20:10 *488:A1 0
6 *20:10 *27:69 0
7 *20:10 *38:10 0.000394151
8 *20:10 *62:6 0
*RES
1 *488:Y *20:10 43.7904 
2 *20:10 *506:D 42.266 
*END

*D_NET *21 0.000615225
*CONN
*I *508:D I *D sg13cmos5l_dfrbpq_1
*I *493:X O *D sg13cmos5l_mux2_1
*CAP
1 *508:D 0.000307612
2 *493:X 0.000307612
3 *508:D *493:A0 0
*RES
1 *493:X *508:D 43.5947 
*END

*D_NET *22 0.0129725
*CONN
*I *480:B1 I *D sg13cmos5l_a21oi_1
*I *488:B1 I *D sg13cmos5l_a21oi_1
*I *484:B1 I *D sg13cmos5l_a21oi_1
*I *476:A I *D sg13cmos5l_nor2_1
*I *473:A I *D sg13cmos5l_nor2_1
*I *469:A I *D sg13cmos5l_nor2_1
*I *466:A I *D sg13cmos5l_nor2_1
*I *464:Y O *D sg13cmos5l_inv_1
*CAP
1 *480:B1 0.000766099
2 *488:B1 0.000720955
3 *484:B1 8.50397e-05
4 *476:A 0.000202814
5 *473:A 0.000112331
6 *469:A 0.000513874
7 *466:A 0.000251778
8 *464:Y 4.80099e-05
9 *22:62 0.00166271
10 *22:49 0.00201774
11 *22:43 0.00208808
12 *22:32 0.00102217
13 *22:21 0.00113751
14 *22:8 0.00037736
15 *466:A *466:B 0
16 *466:A *55:12 0
17 *469:A *465:B 4.78524e-05
18 *469:A *55:12 0
19 *469:A *55:23 0
20 *473:A *473:B 0.000177047
21 *473:A *494:RESET_B 0
22 *476:A *59:35 7.52158e-05
23 *480:B1 *480:A1 0
24 *480:B1 *45:35 0
25 *480:B1 *56:23 0
26 *480:B1 *57:8 0
27 *480:B1 *59:8 0
28 *488:B1 *62:14 0.00119627
29 *22:8 *55:12 7.9808e-05
30 *22:21 *56:23 0
31 *22:32 *465:B 0
32 *22:32 *54:8 0
33 *22:32 *56:23 0
34 *22:32 *57:8 0
35 *22:43 *56:23 0
36 *22:43 *57:8 0
37 *22:49 *498:RESET_B 0
38 *22:49 *500:RESET_B 0
39 *22:49 *45:14 0
40 *22:49 *45:16 0
41 *22:49 *58:10 0
42 *22:62 *62:14 0.000341949
43 *502:D *480:B1 0
44 *14:8 *466:A 0
45 *15:10 *469:A 4.78359e-05
*RES
1 *464:Y *22:8 40.5356 
2 *22:8 *466:A 42.7707 
3 *22:8 *22:21 0.8446 
4 *22:21 *469:A 45.0779 
5 *22:21 *22:32 5.5414 
6 *22:32 *473:A 41.1845 
7 *22:32 *22:43 3.811 
8 *22:43 *22:49 49.6202 
9 *22:49 *476:A 42.0909 
10 *22:49 *22:62 8.0134 
11 *22:62 *484:B1 40.7519 
12 *22:62 *488:B1 47.5293 
13 *22:43 *480:B1 48.3121 
*END

*D_NET *23 0.000158226
*CONN
*I *466:B I *D sg13cmos5l_nor2_1
*I *465:Y O *D sg13cmos5l_xnor2_1
*CAP
1 *466:B 7.91129e-05
2 *465:Y 7.91129e-05
3 *466:B *55:12 0
4 *466:B *55:23 0
5 *466:A *466:B 0
*RES
1 *465:Y *466:B 40.9167 
*END

*D_NET *24 0.000390394
*CONN
*I *468:B I *D sg13cmos5l_xor2_1
*I *467:Y O *D sg13cmos5l_nand2_1
*CAP
1 *468:B 0.000155155
2 *467:Y 0.000155155
3 *468:B *467:B 0
4 *468:B *53:12 8.00842e-05
*RES
1 *467:Y *468:B 41.8746 
*END

*D_NET *25 0.000338557
*CONN
*I *469:B I *D sg13cmos5l_nor2_1
*I *468:X O *D sg13cmos5l_xor2_1
*CAP
1 *469:B 0.000169279
2 *468:X 0.000169279
3 *469:B *55:23 0
*RES
1 *468:X *469:B 41.4008 
*END

*D_NET *26 0.000376495
*CONN
*I *471:A I *D sg13cmos5l_buf_4
*I *470:Y O *D sg13cmos5l_nand3_1
*CAP
1 *471:A 0.0001482
2 *470:Y 0.0001482
3 *471:A *59:35 8.00954e-05
*RES
1 *470:Y *471:A 41.3802 
*END

*D_NET *27 0.0114889
*CONN
*I *486:A1 I *D sg13cmos5l_o21ai_1
*I *487:B I *D sg13cmos5l_or3_1
*I *492:B I *D sg13cmos5l_nor3_2
*I *482:A1 I *D sg13cmos5l_o21ai_1
*I *483:B I *D sg13cmos5l_or3_1
*I *479:B I *D sg13cmos5l_or3_1
*I *478:A1 I *D sg13cmos5l_o21ai_1
*I *472:B I *D sg13cmos5l_xor2_1
*I *471:X O *D sg13cmos5l_buf_4
*CAP
1 *486:A1 9.92618e-05
2 *487:B 0
3 *492:B 0.000404428
4 *482:A1 0.000234461
5 *483:B 0
6 *479:B 0
7 *478:A1 4.64313e-05
8 *472:B 0.000470951
9 *471:X 0.000145512
10 *27:73 0.000434181
11 *27:69 0.000954861
12 *27:55 0.000258216
13 *27:51 0.00103415
14 *27:44 0.000253246
15 *27:29 0.000902078
16 *27:25 0.00134814
17 *27:10 0.00117765
18 *472:B *476:B 0
19 *472:B *45:14 0
20 *472:B *45:16 0.00033953
21 *472:B *59:16 0
22 *472:B *59:35 0
23 *478:A1 *478:A2 8.02924e-05
24 *478:A1 *59:8 0
25 *482:A1 *482:A2 0.000354514
26 *482:A1 *34:6 1.54556e-05
27 *482:A1 *62:16 0
28 *486:A1 *492:C 1.54008e-05
29 *486:A1 *37:25 0.000265575
30 *486:A1 *38:10 0.000234224
31 *486:A1 *46:38 1.54008e-05
32 *492:B *492:C 0
33 *492:B *506:CLK 0
34 *492:B *46:23 0.00030522
35 *27:10 *476:B 0
36 *27:10 *45:8 0.000128662
37 *27:10 *59:35 0
38 *27:25 *475:A 0.000128662
39 *27:25 *500:CLK 0.000660972
40 *27:25 *45:8 0.000212127
41 *27:29 *477:A 0
42 *27:29 *478:A2 1.54008e-05
43 *27:29 *31:6 0
44 *27:29 *59:8 0
45 *27:29 *60:6 4.77425e-05
46 *27:29 *61:30 0
47 *27:44 *478:B1 0
48 *27:44 *479:C 0
49 *27:44 *45:35 0
50 *27:44 *61:30 8.0216e-05
51 *27:51 *475:A 5.30319e-05
52 *27:51 *60:25 0
53 *27:69 *37:10 0
54 *27:69 *37:25 0.00012816
55 *27:69 *60:25 0
56 *27:69 *61:70 0.000341621
57 *27:69 *62:31 0.000287672
58 *27:73 *46:23 1.54008e-05
59 *20:10 *27:69 0
*RES
1 *471:X *27:10 41.5656 
2 *27:10 *472:B 44.6453 
3 *27:10 *27:25 7.416 
4 *27:25 *27:29 25.5105 
5 *27:29 *478:A1 20.5356 
6 *27:29 *27:44 42.369 
7 *27:44 *479:B 20 
8 *27:25 *27:51 1.8334 
9 *27:51 *27:55 20.3193 
10 *27:55 *483:B 20 
11 *27:55 *482:A1 22.266 
12 *27:51 *27:69 9.0022 
13 *27:69 *27:73 20.3193 
14 *27:73 *492:B 23.9964 
15 *27:73 *487:B 20 
16 *27:69 *486:A1 41.6583 
*END

*D_NET *28 0.0010393
*CONN
*I *473:B I *D sg13cmos5l_nor2_1
*I *472:X O *D sg13cmos5l_xor2_1
*CAP
1 *473:B 0.000431124
2 *472:X 0.000431124
3 *473:B *494:RESET_B 0
4 *473:B *45:16 0
5 *473:B *45:24 0
6 *473:B *57:23 0
7 *473:A *473:B 0.000177047
8 *498:D *473:B 0
*RES
1 *472:X *473:B 43.8346 
*END

*D_NET *29 0.000656639
*CONN
*I *475:B I *D sg13cmos5l_xor2_1
*I *474:Y O *D sg13cmos5l_nand4_1
*CAP
1 *475:B 0
2 *474:Y 0.000125267
3 *29:10 0.000125267
4 *29:10 *470:A 4.78356e-05
5 *29:10 *474:A 4.79124e-05
6 *29:10 *30:8 7.56308e-05
7 *29:10 *58:10 0.000234726
8 *29:10 *59:35 0
*RES
1 *474:Y *29:10 41.6274 
2 *29:10 *475:B 40 
*END

*D_NET *30 0.00133631
*CONN
*I *476:B I *D sg13cmos5l_nor2_1
*I *475:X O *D sg13cmos5l_xor2_1
*CAP
1 *476:B 0.000295388
2 *475:X 0.000176529
3 *30:8 0.000471918
4 *30:8 *475:A 7.51285e-05
5 *30:8 *58:10 0
6 *472:B *476:B 0
7 *500:D *476:B 0.000241716
8 *27:10 *476:B 0
9 *29:10 *30:8 7.56308e-05
*RES
1 *475:X *30:8 41.5862 
2 *30:8 *476:B 42.8325 
*END

*D_NET *31 0.000720267
*CONN
*I *479:C I *D sg13cmos5l_or3_1
*I *478:A2 I *D sg13cmos5l_o21ai_1
*I *477:Y O *D sg13cmos5l_nand2_1
*CAP
1 *479:C 9.09925e-05
2 *478:A2 9.67137e-05
3 *477:Y 0.00011688
4 *31:6 0.000304587
5 *478:A2 *480:A1 0
6 *479:C *480:A1 1.54008e-05
7 *31:6 *61:30 0
8 *478:A1 *478:A2 8.02924e-05
9 *27:29 *478:A2 1.54008e-05
10 *27:29 *31:6 0
11 *27:44 *479:C 0
*RES
1 *477:Y *31:6 21.1845 
2 *31:6 *478:A2 21.133 
3 *31:6 *479:C 21.133 
*END

*D_NET *32 0.00128919
*CONN
*I *480:A1 I *D sg13cmos5l_a21oi_1
*I *478:Y O *D sg13cmos5l_o21ai_1
*CAP
1 *480:A1 0.00046724
2 *478:Y 0.00046724
3 *480:A1 *480:A2 0.00033931
4 *480:A1 *59:8 0
5 *478:A2 *480:A1 0
6 *479:C *480:A1 1.54008e-05
7 *480:B1 *480:A1 0
8 *502:D *480:A1 0
*RES
1 *478:Y *480:A1 45.047 
*END

*D_NET *33 0.00114291
*CONN
*I *480:A2 I *D sg13cmos5l_a21oi_1
*I *479:X O *D sg13cmos5l_or3_1
*CAP
1 *480:A2 0.000401801
2 *479:X 0.000401801
3 *480:A2 *44:10 0
4 *480:A1 *480:A2 0.00033931
*RES
1 *479:X *480:A2 44.1921 
*END

*D_NET *34 0.00152838
*CONN
*I *482:A2 I *D sg13cmos5l_o21ai_1
*I *483:C I *D sg13cmos5l_or3_1
*I *481:Y O *D sg13cmos5l_nand3_1
*CAP
1 *482:A2 0.000346651
2 *483:C 2.77263e-05
3 *481:Y 0.000164785
4 *34:6 0.000539162
5 *482:A2 *518:A 0
6 *482:A2 *60:6 0
7 *482:A2 *62:14 6.46834e-05
8 *482:A2 *62:16 1.54008e-05
9 *34:6 *477:A 0
10 *34:6 *60:25 0
11 *34:6 *61:70 0
12 *482:A1 *482:A2 0.000354514
13 *482:A1 *34:6 1.54556e-05
*RES
1 *481:Y *34:6 21.4008 
2 *34:6 *483:C 20.3502 
3 *34:6 *482:A2 23.8316 
*END

*D_NET *35 0.000324412
*CONN
*I *484:A1 I *D sg13cmos5l_a21oi_1
*I *482:Y O *D sg13cmos5l_o21ai_1
*CAP
1 *484:A1 0.000162206
2 *482:Y 0.000162206
*RES
1 *482:Y *484:A1 41.3802 
*END

*D_NET *36 0.000736482
*CONN
*I *484:A2 I *D sg13cmos5l_a21oi_1
*I *483:X O *D sg13cmos5l_or3_1
*CAP
1 *484:A2 0.000239604
2 *483:X 0.000239604
3 *484:A2 *62:14 1.54008e-05
4 *484:A2 *62:16 0.000241874
5 *504:D *484:A2 0
*RES
1 *483:X *484:A2 42.2145 
*END

*D_NET *37 0.00399301
*CONN
*I *486:A2 I *D sg13cmos5l_o21ai_1
*I *492:C I *D sg13cmos5l_nor3_2
*I *487:C I *D sg13cmos5l_or3_1
*I *485:Y O *D sg13cmos5l_nand4_1
*CAP
1 *486:A2 0
2 *492:C 0.000516703
3 *487:C 3.77166e-05
4 *485:Y 0.000957162
5 *37:25 0.00070145
6 *37:10 0.00117963
7 *492:C *486:B1 1.54008e-05
8 *492:C *506:RESET_B 0
9 *492:C *46:23 0
10 *37:10 *504:CLK 0
11 *37:10 *62:31 0.000175815
12 *486:A1 *492:C 1.54008e-05
13 *486:A1 *37:25 0.000265575
14 *492:B *492:C 0
15 *27:69 *37:10 0
16 *27:69 *37:25 0.00012816
*RES
1 *485:Y *37:10 47.7147 
2 *37:10 *487:C 40.3193 
3 *37:10 *37:25 22.3999 
4 *37:25 *492:C 24.944 
5 *37:25 *486:A2 20 
*END

*D_NET *38 0.0016885
*CONN
*I *488:A1 I *D sg13cmos5l_a21oi_1
*I *486:Y O *D sg13cmos5l_o21ai_1
*CAP
1 *488:A1 0.00018827
2 *486:Y 0.000140742
3 *38:10 0.000329012
4 *488:A1 *488:A2 0.000241716
5 *38:10 *486:B1 8.01938e-05
6 *38:10 *506:RESET_B 8.01938e-05
7 *486:A1 *38:10 0.000234224
8 *20:10 *488:A1 0
9 *20:10 *38:10 0.000394151
*RES
1 *486:Y *38:10 42.369 
2 *38:10 *488:A1 41.8334 
*END

*D_NET *39 0.000623653
*CONN
*I *488:A2 I *D sg13cmos5l_a21oi_1
*I *487:X O *D sg13cmos5l_or3_1
*CAP
1 *488:A2 0.000190969
2 *487:X 0.000190969
3 *488:A2 *513:A 0
4 *488:A2 *46:38 0
5 *488:A1 *488:A2 0.000241716
*RES
1 *487:X *488:A2 41.9673 
*END

*D_NET *40 0.00135228
*CONN
*I *493:A0 I *D sg13cmos5l_mux2_1
*I *489:X O *D sg13cmos5l_and2_1
*CAP
1 *493:A0 0.000441619
2 *489:X 0.000441619
3 *493:A0 *490:B_N 0
4 *493:A0 *493:A1 0.000469039
5 *493:A0 *493:S 0
6 *493:A0 *508:RESET_B 0
7 *508:D *493:A0 0
*RES
1 *489:X *493:A0 45.0779 
*END

*D_NET *41 0.00114404
*CONN
*I *493:A1 I *D sg13cmos5l_mux2_1
*I *490:Y O *D sg13cmos5l_nor2b_1
*CAP
1 *493:A1 0.000337502
2 *490:Y 0.000337502
3 *493:A1 *493:S 0
4 *493:A1 *508:RESET_B 0
5 *493:A1 *56:27 0
6 *493:A0 *493:A1 0.000469039
*RES
1 *490:Y *493:A1 43.914 
*END

*D_NET *42 0.000149676
*CONN
*I *492:A I *D sg13cmos5l_nor3_2
*I *491:Y O *D sg13cmos5l_inv_1
*CAP
1 *492:A 0
2 *491:Y 7.48379e-05
3 *42:8 7.48379e-05
4 *42:8 *46:23 0
5 *42:8 *47:10 0
*RES
1 *491:Y *42:8 40.8446 
2 *42:8 *492:A 40 
*END

*D_NET *43 0.0016457
*CONN
*I *493:S I *D sg13cmos5l_mux2_1
*I *492:Y O *D sg13cmos5l_nor3_2
*CAP
1 *493:S 0.000548305
2 *492:Y 0.000548305
3 *493:S *490:A 0
4 *493:S *506:CLK 0.000468962
5 *493:S *508:CLK 8.0128e-05
6 *493:S *56:27 0
7 *493:A0 *493:S 0
8 *493:A1 *493:S 0
*RES
1 *492:Y *493:S 46.1388 
*END

*D_NET *44 0.00084606
*CONN
*I *502:RESET_B I *D sg13cmos5l_dfrbpq_1
*I *503:L_HI O *D sg13cmos5l_tiehi
*CAP
1 *502:RESET_B 0
2 *503:L_HI 0.000305875
3 *44:10 0.000305875
4 *44:10 *56:23 0.000234311
5 *480:A2 *44:10 0
*RES
1 *503:L_HI *44:10 43.3578 
2 *44:10 *502:RESET_B 40 
*END

*D_NET *45 0.0176129
*CONN
*I *500:CLK I *D sg13cmos5l_dfrbpq_1
*I *496:CLK I *D sg13cmos5l_dfrbpq_1
*I *494:CLK I *D sg13cmos5l_dfrbpq_1
*I *506:CLK I *D sg13cmos5l_dfrbpq_1
*I *508:CLK I *D sg13cmos5l_dfrbpq_1
*I *504:CLK I *D sg13cmos5l_dfrbpq_1
*I *502:CLK I *D sg13cmos5l_dfrbpq_1
*I *498:CLK I *D sg13cmos5l_dfrbpq_1
*I *510:X O *D sg13cmos5l_buf_1
*CAP
1 *500:CLK 0.000213691
2 *496:CLK 0
3 *494:CLK 0
4 *506:CLK 0.000532041
5 *508:CLK 4.94748e-05
6 *504:CLK 0.000710243
7 *502:CLK 5.67303e-05
8 *498:CLK 0
9 *510:X 0
10 *45:59 0.00080154
11 *45:46 0.00109409
12 *45:35 0.000754444
13 *45:24 0.000967948
14 *45:16 0.0008124
15 *45:14 0.000711337
16 *45:8 0.00119904
17 *45:6 0.000652356
18 *500:CLK *475:A 0
19 *500:CLK *58:10 0.000478534
20 *504:CLK *504:RESET_B 0
21 *504:CLK *47:10 0
22 *504:CLK *61:10 0.000242203
23 *506:CLK *491:A 0
24 *45:8 *468:A 0.000287256
25 *45:8 *55:31 0
26 *45:8 *57:45 0.00124598
27 *45:8 *58:10 0.000766204
28 *45:8 *58:12 0.00050063
29 *45:14 *498:RESET_B 0
30 *45:16 *498:RESET_B 0
31 *45:24 *498:RESET_B 0
32 *45:24 *56:23 0.000608353
33 *45:35 *478:B1 0
34 *45:35 *498:RESET_B 0
35 *45:35 *56:23 0.00156915
36 *45:35 *61:10 0
37 *45:46 *56:23 0.000587588
38 *45:46 *61:10 0
39 *45:59 *47:10 0
40 *45:59 *56:23 0.000801202
41 *45:59 *61:10 0
42 *472:B *45:14 0
43 *472:B *45:16 0.00033953
44 *473:B *45:16 0
45 *473:B *45:24 0
46 *480:B1 *45:35 0
47 *492:B *506:CLK 0
48 *493:S *506:CLK 0.000468962
49 *493:S *508:CLK 8.0128e-05
50 *498:D *45:24 0
51 *500:D *45:14 8.00842e-05
52 *22:49 *45:14 0
53 *22:49 *45:16 0
54 *27:10 *45:8 0.000128662
55 *27:25 *500:CLK 0.000660972
56 *27:25 *45:8 0.000212127
57 *27:44 *45:35 0
58 *37:10 *504:CLK 0
*RES
1 *510:X *45:6 40 
2 *45:6 *45:8 10.7326 
3 *45:8 *45:14 21.905 
4 *45:14 *45:16 3.9964 
5 *45:16 *45:24 45.0882 
6 *45:24 *498:CLK 20 
7 *45:24 *45:35 27.8074 
8 *45:35 *502:CLK 40.5356 
9 *45:35 *45:46 2.8222 
10 *45:46 *504:CLK 47.4572 
11 *45:46 *45:59 23.811 
12 *45:59 *508:CLK 20.5356 
13 *45:59 *506:CLK 25.7268 
14 *45:16 *494:CLK 20 
15 *45:14 *496:CLK 20 
16 *45:8 *500:CLK 43.605 
*END

*D_NET *46 0.00358439
*CONN
*I *513:A I *D sg13cmos5l_buf_1
*I *486:B1 I *D sg13cmos5l_o21ai_1
*I *487:A I *D sg13cmos5l_or3_1
*I *491:A I *D sg13cmos5l_inv_1
*I *506:Q O *D sg13cmos5l_dfrbpq_1
*CAP
1 *513:A 0.00039778
2 *486:B1 6.50072e-05
3 *487:A 0
4 *491:A 0.000196326
5 *506:Q 0.000258004
6 *46:38 0.000696553
7 *46:23 0.00065927
8 *46:8 0.000879836
9 *513:A *506:RESET_B 0
10 *486:A1 *46:38 1.54008e-05
11 *488:A2 *513:A 0
12 *488:A2 *46:38 0
13 *492:B *46:23 0.00030522
14 *492:C *486:B1 1.54008e-05
15 *492:C *46:23 0
16 *506:CLK *491:A 0
17 *27:73 *46:23 1.54008e-05
18 *38:10 *486:B1 8.01938e-05
19 *42:8 *46:23 0
*RES
1 *506:Q *46:8 42.3278 
2 *46:8 *491:A 42.0497 
3 *46:8 *46:23 23.8831 
4 *46:23 *487:A 20 
5 *46:23 *46:38 2.6471 
6 *46:38 *486:B1 20.7519 
7 *46:38 *513:A 23.914 
*END

*D_NET *47 0.00449611
*CONN
*I *514:A I *D sg13cmos5l_buf_1
*I *489:A I *D sg13cmos5l_and2_1
*I *490:A I *D sg13cmos5l_nor2b_1
*I *508:Q O *D sg13cmos5l_dfrbpq_1
*CAP
1 *514:A 0
2 *489:A 0
3 *490:A 5.55945e-05
4 *508:Q 0.000521192
5 *47:34 0.0014983
6 *47:21 0.00167127
7 *47:10 0.000749753
8 *490:A *56:27 0
9 *47:10 *56:23 0
10 *47:10 *61:10 0
11 *47:21 *50:8 0
12 *47:21 *56:23 0
13 *47:34 *50:8 0
14 *493:S *490:A 0
15 *504:CLK *47:10 0
16 *42:8 *47:10 0
17 *45:59 *47:10 0
*RES
1 *508:Q *47:10 45.8607 
2 *47:10 *490:A 40.5356 
3 *47:10 *47:21 2.0806 
4 *47:21 *489:A 40 
5 *47:21 *47:34 36.4285 
6 *47:34 *514:A 20 
*END

*D_NET *48 0.00143458
*CONN
*I *506:RESET_B I *D sg13cmos5l_dfrbpq_1
*I *507:L_HI O *D sg13cmos5l_tiehi
*CAP
1 *506:RESET_B 0.000508281
2 *507:L_HI 0.000508281
3 *492:C *506:RESET_B 0
4 *506:D *506:RESET_B 0.000337824
5 *513:A *506:RESET_B 0
6 *38:10 *506:RESET_B 8.01938e-05
*RES
1 *507:L_HI *506:RESET_B 44.7586 
*END

*D_NET *49 0.000476738
*CONN
*I *500:RESET_B I *D sg13cmos5l_dfrbpq_1
*I *501:L_HI O *D sg13cmos5l_tiehi
*CAP
1 *500:RESET_B 0.000238369
2 *501:L_HI 0.000238369
3 *500:D *500:RESET_B 0
4 *22:49 *500:RESET_B 0
*RES
1 *501:L_HI *500:RESET_B 42.1836 
*END

*D_NET *50 0.00131948
*CONN
*I *508:RESET_B I *D sg13cmos5l_dfrbpq_1
*I *509:L_HI O *D sg13cmos5l_tiehi
*CAP
1 *508:RESET_B 0.000167925
2 *509:L_HI 0.000370762
3 *50:8 0.000538687
4 *508:RESET_B *56:27 0.00024211
5 *493:A0 *508:RESET_B 0
6 *493:A1 *508:RESET_B 0
7 *47:21 *50:8 0
8 *47:34 *50:8 0
*RES
1 *509:L_HI *50:8 44.0582 
2 *50:8 *508:RESET_B 41.8334 
*END

*D_NET *51 0.00111446
*CONN
*I *498:RESET_B I *D sg13cmos5l_dfrbpq_1
*I *499:L_HI O *D sg13cmos5l_tiehi
*CAP
1 *498:RESET_B 0.000557229
2 *499:L_HI 0.000557229
3 *22:49 *498:RESET_B 0
4 *45:14 *498:RESET_B 0
5 *45:16 *498:RESET_B 0
6 *45:24 *498:RESET_B 0
7 *45:35 *498:RESET_B 0
*RES
1 *499:L_HI *498:RESET_B 45.2736 
*END

*D_NET *52 0.000462232
*CONN
*I *504:RESET_B I *D sg13cmos5l_dfrbpq_1
*I *505:L_HI O *D sg13cmos5l_tiehi
*CAP
1 *504:RESET_B 0.000231116
2 *505:L_HI 0.000231116
3 *504:RESET_B *61:70 0
4 *504:D *504:RESET_B 0
5 *504:CLK *504:RESET_B 0
*RES
1 *505:L_HI *504:RESET_B 42.1836 
*END

*D_NET *53 0.00292245
*CONN
*I *496:RESET_B I *D sg13cmos5l_dfrbpq_1
*I *497:L_HI O *D sg13cmos5l_tiehi
*CAP
1 *496:RESET_B 0.000197853
2 *497:L_HI 0.000616214
3 *53:12 0.000814066
4 *496:RESET_B *474:B 7.92329e-05
5 *496:RESET_B *57:23 0.000208041
6 *53:12 *515:A 0
7 *53:12 *55:23 0
8 *53:12 *55:31 0.000926961
9 *468:B *53:12 8.00842e-05
*RES
1 *497:L_HI *53:12 46.6744 
2 *53:12 *496:RESET_B 41.9982 
*END

*D_NET *54 0.00200552
*CONN
*I *494:RESET_B I *D sg13cmos5l_dfrbpq_1
*I *495:L_HI O *D sg13cmos5l_tiehi
*CAP
1 *494:RESET_B 0.000188511
2 *495:L_HI 0.000323336
3 *54:8 0.000511847
4 *494:RESET_B *57:23 0
5 *54:8 *56:23 0.000981825
6 *473:A *494:RESET_B 0
7 *473:B *494:RESET_B 0
8 *22:32 *54:8 0
*RES
1 *495:L_HI *54:8 44.5526 
2 *54:8 *494:RESET_B 41.8334 
*END

*D_NET *55 0.00909241
*CONN
*I *467:A I *D sg13cmos5l_nand2_1
*I *470:A I *D sg13cmos5l_nand3_1
*I *474:A I *D sg13cmos5l_nand4_1
*I *465:A I *D sg13cmos5l_xnor2_1
*I *511:X O *D sg13cmos5l_buf_1
*CAP
1 *467:A 0
2 *470:A 0.000331751
3 *474:A 2.45336e-05
4 *465:A 0
5 *511:X 0.000265977
6 *55:31 0.000774314
7 *55:23 0.0010716
8 *55:12 0.00246267
9 *55:8 0.00207508
10 *470:A *470:B 0
11 *470:A *59:35 0
12 *474:A *474:B 4.79124e-05
13 *55:12 *465:B 4.79124e-05
14 *55:12 *56:12 0
15 *55:12 *56:23 0
16 *55:23 *465:B 1.54556e-05
17 *55:23 *467:B 0
18 *55:31 *468:A 0.000287758
19 *55:31 *58:10 0.000106064
20 *55:31 *58:12 0.000478861
21 *466:A *55:12 0
22 *466:B *55:12 0
23 *466:B *55:23 0
24 *469:A *55:12 0
25 *469:A *55:23 0
26 *469:B *55:23 0
27 *15:10 *55:23 0
28 *22:8 *55:12 7.9808e-05
29 *29:10 *470:A 4.78356e-05
30 *29:10 *474:A 4.79124e-05
31 *45:8 *55:31 0
32 *53:12 *55:23 0
33 *53:12 *55:31 0.000926961
*RES
1 *511:X *55:8 42.575 
2 *55:8 *55:12 39.1374 
3 *55:12 *465:A 20 
4 *55:12 *55:23 6.6744 
5 *55:23 *55:31 46.3551 
6 *55:31 *474:A 20.3193 
7 *55:31 *470:A 22.8325 
8 *55:23 *467:A 20 
*END

*D_NET *56 0.0101941
*CONN
*I *489:B I *D sg13cmos5l_and2_1
*I *490:B_N I *D sg13cmos5l_nor2b_1
*I *464:A I *D sg13cmos5l_inv_1
*I *512:X O *D sg13cmos5l_buf_1
*CAP
1 *489:B 0
2 *490:B_N 9.29934e-05
3 *464:A 0
4 *512:X 0.000163259