*SPEF "ieee 1481-1999"
*DESIGN "counter"
*DATE "15:44:27 Saturday July 18, 2026"
*VENDOR "The OpenROAD Project"
*PROGRAM "OpenROAD"
*VERSION "dcf36133a369abc8f3c5e5738cd4d82e4903c0e0"
*DESIGN_FLOW "NAME_SCOPE LOCAL" "PIN_CAP NONE"
*DIVIDER /
*DELIMITER :
*BUS_DELIMITER []
*T_UNIT 1 NS
*C_UNIT 1 PF
*R_UNIT 1 OHM
*L_UNIT 1 HENRY

*NAME_MAP
*3 clock_i
*4 counter_value_o[0]
*5 counter_value_o[1]
*6 counter_value_o[2]
*7 counter_value_o[3]
*8 counter_value_o[4]
*9 counter_value_o[5]
*10 counter_value_o[6]
*11 counter_value_o[7]
*12 enable_i
*13 reset_n_i
*14 _00_
*15 _01_
*16 _02_
*17 _03_
*18 _04_
*19 _05_
*20 _06_
*21 _07_
*22 _08_
*23 _09_
*24 _10_
*25 _11_
*26 _12_
*27 _13_
*28 _14_
*29 _15_
*30 _16_
*31 _17_
*32 _18_
*33 _19_
*34 _20_
*35 _21_
*36 _22_
*37 _23_
*38 _24_
*39 _25_
*40 _26_
*41 _27_
*42 _28_
*43 clknet_0_clock_i
*44 clknet_1_0__leaf_clock_i
*45 clknet_1_1__leaf_clock_i
*46 net
*47 net1
*48 net10
*49 net11
*50 net12
*51 net13
*52 net14
*53 net15
*54 net16
*55 net17
*56 net18
*57 net19
*58 net2
*59 net20
*60 net21
*61 net22
*62 net23
*63 net24
*64 net25
*65 net26
*66 net27
*67 net28
*68 net29
*69 net3
*70 net30
*71 net31
*72 net32
*73 net33
*74 net34
*75 net35
*76 net36
*77 net4
*78 net5
*79 net6
*80 net7
*81 net8
*82 net9
*83 FILLER_0_0
*84 FILLER_0_105
*85 FILLER_0_112
*86 FILLER_0_119
*87 FILLER_0_126
*88 FILLER_0_133
*89 FILLER_0_14
*90 FILLER_0_140
*91 FILLER_0_147
*92 FILLER_0_149
*93 FILLER_0_21
*94 FILLER_0_28
*95 FILLER_0_35
*96 FILLER_0_42
*97 FILLER_0_49
*98 FILLER_0_56
*99 FILLER_0_63
*100 FILLER_0_7
*101 FILLER_0_70
*102 FILLER_0_77
*103 FILLER_0_84
*104 FILLER_0_91
*105 FILLER_0_98
*106 FILLER_10_102
*107 FILLER_10_109
*108 FILLER_10_11
*109 FILLER_10_116
*110 FILLER_10_123
*111 FILLER_10_130
*112 FILLER_10_137
*113 FILLER_10_144
*114 FILLER_10_148
*115 FILLER_10_18
*116 FILLER_10_25
*117 FILLER_10_32
*118 FILLER_10_39
*119 FILLER_10_4
*120 FILLER_10_46
*121 FILLER_10_53
*122 FILLER_10_60
*123 FILLER_10_67
*124 FILLER_10_74
*125 FILLER_10_81
*126 FILLER_10_88
*127 FILLER_10_95
*128 FILLER_11_0
*129 FILLER_11_101
*130 FILLER_11_108
*131 FILLER_11_115
*132 FILLER_11_122
*133 FILLER_11_129
*134 FILLER_11_136
*135 FILLER_11_143
*136 FILLER_11_18
*137 FILLER_11_25
*138 FILLER_11_32
*139 FILLER_11_43
*140 FILLER_11_50
*141 FILLER_11_57
*142 FILLER_11_64
*143 FILLER_11_7
*144 FILLER_11_71
*145 FILLER_11_78
*146 FILLER_11_85
*147 FILLER_11_92
*148 FILLER_12_0
*149 FILLER_12_116
*150 FILLER_12_123
*151 FILLER_12_130
*152 FILLER_12_137
*153 FILLER_12_144
*154 FILLER_12_148
*155 FILLER_12_17
*156 FILLER_12_24
*157 FILLER_12_28
*158 FILLER_12_60
*159 FILLER_12_67
*160 FILLER_12_74
*161 FILLER_12_81
*162 FILLER_12_83
*163 FILLER_13_0
*164 FILLER_13_101
*165 FILLER_13_103
*166 FILLER_13_120
*167 FILLER_13_127
*168 FILLER_13_131
*169 FILLER_13_138
*170 FILLER_13_14
*171 FILLER_13_145
*172 FILLER_13_149
*173 FILLER_13_21
*174 FILLER_13_28
*175 FILLER_13_35
*176 FILLER_13_42
*177 FILLER_13_7
*178 FILLER_13_78
*179 FILLER_14_0
*180 FILLER_14_123
*181 FILLER_14_130
*182 FILLER_14_132
*183 FILLER_14_146
*184 FILLER_14_19
*185 FILLER_14_26
*186 FILLER_14_28
*187 FILLER_14_35
*188 FILLER_14_63
*189 FILLER_14_67
*190 FILLER_14_7
*191 FILLER_14_77
*192 FILLER_14_81
*193 FILLER_15_0
*194 FILLER_15_123
*195 FILLER_15_130
*196 FILLER_15_132
*197 FILLER_15_142
*198 FILLER_15_149
*199 FILLER_15_18
*200 FILLER_15_25
*201 FILLER_15_56
*202 FILLER_15_60
*203 FILLER_15_64
*204 FILLER_15_7
*205 FILLER_15_71
*206 FILLER_15_9
*207 FILLER_15_93
*208 FILLER_15_95
*209 FILLER_16_0
*210 FILLER_16_123
*211 FILLER_16_130
*212 FILLER_16_132
*213 FILLER_16_137
*214 FILLER_16_144
*215 FILLER_16_148
*216 FILLER_16_18
*217 FILLER_16_25
*218 FILLER_16_61
*219 FILLER_16_63
*220 FILLER_16_90
*221 FILLER_16_94
*222 FILLER_17_0
*223 FILLER_17_115
*224 FILLER_17_123
*225 FILLER_17_130
*226 FILLER_17_132
*227 FILLER_17_142
*228 FILLER_17_149
*229 FILLER_17_19
*230 FILLER_17_2
*231 FILLER_17_26
*232 FILLER_17_30
*233 FILLER_17_44
*234 FILLER_17_46
*235 FILLER_18_0
*236 FILLER_18_123
*237 FILLER_18_130
*238 FILLER_18_132
*239 FILLER_18_137
*240 FILLER_18_144
*241 FILLER_18_149
*242 FILLER_18_16
*243 FILLER_18_20
*244 FILLER_18_26
*245 FILLER_18_30
*246 FILLER_18_4
*247 FILLER_18_40
*248 FILLER_18_44
*249 FILLER_18_49
*250 FILLER_18_56
*251 FILLER_18_63
*252 FILLER_18_73
*253 FILLER_18_77
*254 FILLER_18_82
*255 FILLER_18_84
*256 FILLER_18_89
*257 FILLER_18_9
*258 FILLER_1_0
*259 FILLER_1_105
*260 FILLER_1_112
*261 FILLER_1_119
*262 FILLER_1_126
*263 FILLER_1_133
*264 FILLER_1_14
*265 FILLER_1_140
*266 FILLER_1_147
*267 FILLER_1_149
*268 FILLER_1_21
*269 FILLER_1_28
*270 FILLER_1_35
*271 FILLER_1_42
*272 FILLER_1_49
*273 FILLER_1_56
*274 FILLER_1_63
*275 FILLER_1_7
*276 FILLER_1_70
*277 FILLER_1_77
*278 FILLER_1_84
*279 FILLER_1_91
*280 FILLER_1_98
*281 FILLER_2_0
*282 FILLER_2_105
*283 FILLER_2_112
*284 FILLER_2_119
*285 FILLER_2_126
*286 FILLER_2_133
*287 FILLER_2_14
*288 FILLER_2_140
*289 FILLER_2_147
*290 FILLER_2_149
*291 FILLER_2_21
*292 FILLER_2_28
*293 FILLER_2_35
*294 FILLER_2_42
*295 FILLER_2_49
*296 FILLER_2_56
*297 FILLER_2_63
*298 FILLER_2_7
*299 FILLER_2_70
*300 FILLER_2_77
*301 FILLER_2_84
*302 FILLER_2_91
*303 FILLER_2_98
*304 FILLER_3_102
*305 FILLER_3_109
*306 FILLER_3_11
*307 FILLER_3_116
*308 FILLER_3_123
*309 FILLER_3_130
*310 FILLER_3_137
*311 FILLER_3_144
*312 FILLER_3_148
*313 FILLER_3_18
*314 FILLER_3_25
*315 FILLER_3_32
*316 FILLER_3_39
*317 FILLER_3_4
*318 FILLER_3_46
*319 FILLER_3_53
*320 FILLER_3_60
*321 FILLER_3_67
*322 FILLER_3_74
*323 FILLER_3_81
*324 FILLER_3_88
*325 FILLER_3_95
*326 FILLER_4_0
*327 FILLER_4_105
*328 FILLER_4_112
*329 FILLER_4_119
*330 FILLER_4_126
*331 FILLER_4_133
*332 FILLER_4_14
*333 FILLER_4_140
*334 FILLER_4_147
*335 FILLER_4_149
*336 FILLER_4_21
*337 FILLER_4_28
*338 FILLER_4_35
*339 FILLER_4_42
*340 FILLER_4_49
*341 FILLER_4_56
*342 FILLER_4_63
*343 FILLER_4_7
*344 FILLER_4_70
*345 FILLER_4_77
*346 FILLER_4_84
*347 FILLER_4_91
*348 FILLER_4_98
*349 FILLER_5_0
*350 FILLER_5_105
*351 FILLER_5_112
*352 FILLER_5_119
*353 FILLER_5_126
*354 FILLER_5_133
*355 FILLER_5_14
*356 FILLER_5_140
*357 FILLER_5_147
*358 FILLER_5_149
*359 FILLER_5_21
*360 FILLER_5_28
*361 FILLER_5_35
*362 FILLER_5_42
*363 FILLER_5_49
*364 FILLER_5_56
*365 FILLER_5_63
*366 FILLER_5_7
*367 FILLER_5_70
*368 FILLER_5_77
*369 FILLER_5_84
*370 FILLER_5_91
*371 FILLER_5_98
*372 FILLER_6_0
*373 FILLER_6_105
*374 FILLER_6_112
*375 FILLER_6_119
*376 FILLER_6_126
*377 FILLER_6_133
*378 FILLER_6_14
*379 FILLER_6_140
*380 FILLER_6_147
*381 FILLER_6_149
*382 FILLER_6_21
*383 FILLER_6_28
*384 FILLER_6_35
*385 FILLER_6_42
*386 FILLER_6_49
*387 FILLER_6_56
*388 FILLER_6_63
*389 FILLER_6_7
*390 FILLER_6_70
*391 FILLER_6_77
*392 FILLER_6_84
*393 FILLER_6_91
*394 FILLER_6_98
*395 FILLER_7_0
*396 FILLER_7_105
*397 FILLER_7_112
*398 FILLER_7_119
*399 FILLER_7_126
*400 FILLER_7_133
*401 FILLER_7_14
*402 FILLER_7_140
*403 FILLER_7_147
*404 FILLER_7_149
*405 FILLER_7_21
*406 FILLER_7_28
*407 FILLER_7_35
*408 FILLER_7_42
*409 FILLER_7_49
*410 FILLER_7_56
*411 FILLER_7_63
*412 FILLER_7_7
*413 FILLER_7_70
*414 FILLER_7_77
*415 FILLER_7_84
*416 FILLER_7_91
*417 FILLER_7_98
*418 FILLER_8_0
*419 FILLER_8_105
*420 FILLER_8_112
*421 FILLER_8_119
*422 FILLER_8_126
*423 FILLER_8_133
*424 FILLER_8_14
*425 FILLER_8_140
*426 FILLER_8_147
*427 FILLER_8_149
*428 FILLER_8_21
*429 FILLER_8_28
*430 FILLER_8_35
*431 FILLER_8_42
*432 FILLER_8_49
*433 FILLER_8_56
*434 FILLER_8_63
*435 FILLER_8_7
*436 FILLER_8_70
*437 FILLER_8_77
*438 FILLER_8_84
*439 FILLER_8_91
*440 FILLER_8_98
*441 FILLER_9_0
*442 FILLER_9_105
*443 FILLER_9_112
*444 FILLER_9_119
*445 FILLER_9_126
*446 FILLER_9_133
*447 FILLER_9_14
*448 FILLER_9_140
*449 FILLER_9_147
*450 FILLER_9_149
*451 FILLER_9_21
*452 FILLER_9_28
*453 FILLER_9_35
*454 FILLER_9_42
*455 FILLER_9_49
*456 FILLER_9_56
*457 FILLER_9_63
*458 FILLER_9_7
*459 FILLER_9_70
*460 FILLER_9_77
*461 FILLER_9_84
*462 FILLER_9_91
*463 FILLER_9_98
*464 _37_
*465 _38_
*466 _39_
*467 _40_
*468 _41_
*469 _42_
*470 _43_
*471 _44_
*472 _45_
*473 _46_
*474 _47_
*475 _48_
*476 _49_
*477 _50_
*478 _51_
*479 _52_
*480 _53_
*481 _54_
*482 _55_
*483 _56_
*484 _57_
*485 _58_
*486 _59_
*487 _60_
*488 _61_
*489 _62_
*490 _63_
*491 _64_
*492 _65_
*493 _66_
*494 _66__13
*495 _67_
*496 _67__19
*497 _68_
*498 _68__17
*499 _69_
*500 _69__14
*501 _70_
*502 _70__18
*503 _71_
*504 _71__12
*505 _72_
*506 _72__16
*507 _73_
*508 _73__15
*509 clkbuf_0_clock_i
*510 clkbuf_1_0__f_clock_i
*511 clkbuf_1_1__f_clock_i
*512 fanout11
*513 hold20
*514 hold21
*515 hold22
*516 hold23
*517 hold24
*518 hold25
*519 hold26
*520 hold27
*521 hold28
*522 hold29
*523 hold30
*524 hold31
*525 hold32
*526 hold33
*527 hold34
*528 hold35
*529 hold36
*530 hold37
*531 input1
*532 input2
*533 output10
*534 output3
*535 output4
*536 output5
*537 output6
*538 output7
*539 output8
*540 output9

*PORTS
clock_i I
counter_value_o[0] O
counter_value_o[1] O
counter_value_o[2] O
counter_value_o[3] O
counter_value_o[4] O
counter_value_o[5] O
counter_value_o[6] O
counter_value_o[7] O
enable_i I
reset_n_i I

*D_NET *3 0.00514072
*CONN
*P clock_i I
*I *509:A I *D sg13cmos5l_buf_8
*CAP
1 clock_i 0.00242031
2 *509:A 0.000150056
3 *3:10 0.00257036
4 *3:10 *465:B 0
5 *3:10 *523:A 0
6 *3:10 *19:8 0
7 *3:10 *22:8 0
8 *3:10 *22:23 0
9 *3:10 *49:14 0
10 *3:10 *58:54 0
11 *3:10 *68:8 0
12 *3:10 *73:10 0
13 *3:10 *78:8 0
14 *3:10 *78:10 0
*RES
1 clock_i *3:10 42.1188 
2 *3:10 *509:A 21.1845 
*END

*D_NET *4 0.00049185
*CONN
*P counter_value_o[0] O
*I *534:X O *D sg13cmos5l_buf_1
*CAP
1 counter_value_o[0] 0.000245925
2 *534:X 0.000245925
*RES
1 *534:X counter_value_o[0] 22.9973 
*END

*D_NET *5 0.000489762
*CONN
*P counter_value_o[1] O
*I *535:X O *D sg13cmos5l_buf_1
*CAP
1 counter_value_o[1] 0.000244881
2 *535:X 0.000244881
*RES
1 *535:X counter_value_o[1] 22.6471 
*END

*D_NET *6 0.00049185
*CONN
*P counter_value_o[2] O
*I *536:X O *D sg13cmos5l_buf_1
*CAP
1 counter_value_o[2] 0.000245925
2 *536:X 0.000245925
*RES
1 *536:X counter_value_o[2] 22.9973 
*END

*D_NET *7 0.00049185
*CONN
*P counter_value_o[3] O
*I *537:X O *D sg13cmos5l_buf_1
*CAP
1 counter_value_o[3] 0.000245925
2 *537:X 0.000245925
*RES
1 *537:X counter_value_o[3] 22.9973 
*END

*D_NET *8 0.000502073
*CONN
*P counter_value_o[4] O
*I *538:X O *D sg13cmos5l_buf_1
*CAP
1 counter_value_o[4] 0.000251036
2 *538:X 0.000251036
*RES
1 *538:X counter_value_o[4] 22.9973 
*END

*D_NET *9 0.000543133
*CONN
*P counter_value_o[5] O
*I *539:X O *D sg13cmos5l_buf_1
*CAP
1 counter_value_o[5] 0.000271567
2 *539:X 0.000271567
3 counter_value_o[5] *482:B1 0
*RES
1 *539:X counter_value_o[5] 23.3475 
*END

*D_NET *10 0.000902018
*CONN
*P counter_value_o[6] O
*I *540:X O *D sg13cmos5l_buf_1
*CAP
1 counter_value_o[6] 0.000145188
2 *540:X 0.000305821
3 *10:10 0.000451009
4 *10:10 *17:8 0
*RES
1 *540:X *10:10 43.296 
2 *10:10 counter_value_o[6] 21.7819 
*END

*D_NET *11 0.0004944
*CONN
*P counter_value_o[7] O
*I *533:X O *D sg13cmos5l_buf_1
*CAP
1 counter_value_o[7] 0.0002472
2 *533:X 0.0002472
*RES
1 *533:X counter_value_o[7] 22.9973 
*END

*D_NET *12 0.000635506
*CONN
*P enable_i I
*I *531:A I *D sg13cmos5l_buf_1
*CAP
1 enable_i 0.000317753
2 *531:A 0.000317753
*RES
1 enable_i *531:A 43.8934 
*END

*D_NET *13 0.000715249
*CONN
*P reset_n_i I
*I *532:A I *D sg13cmos5l_buf_1
*CAP
1 reset_n_i 0.000357625
2 *532:A 0.000357625
*RES
1 reset_n_i *532:A 44.223 
*END

*D_NET *14 0.000426994
*CONN
*I *524:A I *D sg13cmos5l_dlygate4sd3_1
*I *470:Y O *D sg13cmos5l_a21oi_1
*CAP
1 *524:A 0.000173826
2 *470:Y 0.000173826
3 *524:A *466:A 0
4 *524:A *537:A 0
5 *524:A *27:25 7.93426e-05
*RES
1 *470:Y *524:A 41.6171 
*END

*D_NET *15 0.0010816
*CONN
*I *518:A I *D sg13cmos5l_dlygate4sd3_1
*I *474:Y O *D sg13cmos5l_a21oi_1
*CAP
1 *518:A 3.57588e-05
2 *474:Y 0.000254104
3 *15:8 0.000289863
4 *15:8 *27:40 0
5 *15:8 *30:10 0.000501875
*RES
1 *474:Y *15:8 42.8222 
2 *15:8 *518:A 40.3193 
*END

*D_NET *16 0.000565571
*CONN
*I *521:A I *D sg13cmos5l_dlygate4sd3_1
*I *478:Y O *D sg13cmos5l_a21oi_1
*CAP
1 *521:A 0.000134265
2 *478:Y 0.000148521
3 *16:8 0.000282786
4 *521:A *478:A1 0
5 *16:8 *33:10 0
6 *16:8 *50:8 0
*RES
1 *478:Y *16:8 41.5862 
2 *16:8 *521:A 41.4008 
*END

*D_NET *17 0.00259943
*CONN
*I *515:A I *D sg13cmos5l_dlygate4sd3_1
*I *482:Y O *D sg13cmos5l_a21oi_1
*CAP
1 *515:A 0.000242712
2 *482:Y 0.000832332
3 *17:8 0.00107504
4 *515:A *48:23 0
5 *17:8 *479:B 0
6 *17:8 *540:A 0
7 *17:8 *59:8 0.000449344
8 *10:10 *17:8 0
*RES
1 *482:Y *17:8 49.0022 
2 *17:8 *515:A 42.4823 
*END

*D_NET *18 0.00168926
*CONN
*I *497:D I *D sg13cmos5l_dfrbpq_1
*I *484:X O *D sg13cmos5l_and2_1
*CAP
1 *497:D 0
2 *484:X 0.00039653
3 *18:8 0.00039653
4 *18:8 *37:10 0.000182109
5 *18:8 *54:10 0.00071409
6 *18:8 *75:8 0
*RES
1 *484:X *18:8 45.5414 
2 *18:8 *497:D 40 
*END

*D_NET *19 0.00275636
*CONN
*I *499:D I *D sg13cmos5l_dfrbpq_1
*I *487:X O *D sg13cmos5l_and2_1
*CAP
1 *499:D 0.000364989
2 *487:X 0.000531294
3 *19:8 0.000896282
4 *499:D *499:RESET_B 0
5 *499:D *58:54 0.000144976
6 *19:8 *58:54 0
7 *19:8 *73:10 0.000818821
8 *3:10 *19:8 0
*RES
1 *487:X *19:8 45.2942 
2 *19:8 *499:D 42.3999 
*END

*D_NET *20 0.000104819
*CONN
*I *501:D I *D sg13cmos5l_dfrbpq_1
*I *490:X O *D sg13cmos5l_and2_1
*CAP
1 *501:D 5.24094e-05
2 *490:X 5.24094e-05
3 *501:D *465:B 0
*RES
1 *490:X *501:D 40.5974 
*END

*D_NET *21 9.45957e-05
*CONN
*I *503:D I *D sg13cmos5l_dfrbpq_1
*I *492:X O *D sg13cmos5l_and2_1
*CAP
1 *503:D 4.72978e-05
2 *492:X 4.72978e-05
*RES
1 *492:X *503:D 40.5974 
*END

*D_NET *22 0.00294326
*CONN
*I *467:A1 I *D sg13cmos5l_o21ai_1
*I *468:A I *D sg13cmos5l_or3_1
*I *464:Y O *D sg13cmos5l_inv_1
*CAP
1 *467:A1 0
2 *468:A 0
3 *464:Y 0.000211416
4 *22:23 0.000305221
5 *22:8 0.000516637
6 *22:8 *537:A 0.000208195
7 *22:8 *67:23 1.54008e-05
8 *22:23 *505:CLK 0.000112535
9 *22:23 *537:A 6.46834e-05
10 *22:23 *49:48 0.000394981
11 *22:23 *67:23 0.000826429
12 *22:23 *68:8 0.000287758
13 *3:10 *22:8 0
14 *3:10 *22:23 0
*RES
1 *464:Y *22:8 21.9982 
2 *22:8 *468:A 20 
3 *22:8 *22:23 45.0676 
4 *22:23 *467:A1 20 
*END

*D_NET *23 0.00301075
*CONN
*I *466:A I *D sg13cmos5l_buf_4
*I *465:Y O *D sg13cmos5l_nand4_1
*CAP
1 *466:A 0.000604707
2 *465:Y 0.000586192
3 *23:8 0.0011909
4 *466:A *491:B 0.000628951
5 *466:A *501:CLK 0
6 *466:A *525:A 0
7 *466:A *77:10 0
8 *23:8 *42:8 0
9 *23:8 *44:27 0
10 *23:8 *77:10 0
11 *524:A *466:A 0
*RES
1 *465:Y *23:8 46.0358 
2 *23:8 *466:A 45.8607 
*END

*D_NET *24 0.00559225
*CONN
*I *512:A I *D sg13cmos5l_buf_1
*I *481:B I *D sg13cmos5l_or3_1
*I *466:X O *D sg13cmos5l_buf_4
*CAP
1 *512:A 0.000162433
2 *481:B 0.000132402
3 *466:X 0.000317248
4 *24:18 0.00166837
5 *24:12 0.0016984
6 *24:10 0.000317248
7 *481:B *481:A 1.54008e-05
8 *481:B *513:A 0
9 *512:A *505:RESET_B 0
10 *512:A *537:A 0
11 *512:A *49:6 7.9703e-05
12 *512:A *49:14 3.1663e-05
13 *24:10 *49:29 7.51285e-05
14 *24:18 *48:8 0
15 *24:18 *48:23 0
16 *24:18 *49:14 0.000273767
17 *24:18 *49:29 0
18 *24:18 *49:57 0
19 *24:18 *67:23 0.000820482
*RES
1 *466:X *24:10 42.8325 
2 *24:10 *24:12 20 
3 *24:12 *24:18 33.802 
4 *24:18 *481:B 41.1845 
5 *24:12 *512:A 21.751 
*END

*D_NET *25 0.000316834
*CONN
*I *523:A I *D sg13cmos5l_dlygate4sd3_1
*I *467:Y O *D sg13cmos5l_o21ai_1
*CAP
1 *523:A 0.000150689
2 *467:Y 0.000150689
3 *523:A *505:CLK 1.54556e-05
4 *3:10 *523:A 0
*RES
1 *467:Y *523:A 41.8746 
*END

*D_NET *26 0.000217381
*CONN
*I *470:A2 I *D sg13cmos5l_a21oi_1
*I *468:X O *D sg13cmos5l_or3_1
*CAP
1 *470:A2 0.000103685
2 *468:X 0.000103685
3 *470:A2 *470:A1 1.00105e-05
4 *470:A2 *537:A 0
5 *470:A2 *27:8 0
*RES
1 *468:X *470:A2 41.133 
*END

*D_NET *27 0.00955227
*CONN
*I *478:B1 I *D sg13cmos5l_a21oi_1
*I *482:B1 I *D sg13cmos5l_a21oi_1
*I *474:B1 I *D sg13cmos5l_a21oi_1
*I *470:B1 I *D sg13cmos5l_a21oi_1
*I *469:Y O *D sg13cmos5l_inv_1
*CAP
1 *478:B1 0.000728437
2 *482:B1 0.0010208
3 *474:B1 8.18565e-05
4 *470:B1 0
5 *469:Y 0.000203723
6 *27:40 0.00242294
7 *27:29 0.0010241
8 *27:25 0.00100445
9 *27:8 0.000939631
10 *474:B1 *474:A1 0
11 *474:B1 *79:10 0
12 *478:B1 *475:C 0
13 *478:B1 *475:A 0
14 *478:B1 *478:A1 0
15 *478:B1 *31:23 0.000425502
16 *478:B1 *32:10 0
17 *478:B1 *33:10 0
18 *478:B1 *64:14 0
19 *478:B1 *66:8 0
20 *482:B1 *479:B 0
21 *482:B1 *479:A 0
22 *482:B1 *482:A1 0
23 *482:B1 *482:A2 0
24 *482:B1 *34:12 8.00521e-05
25 *482:B1 *49:72 0.000756703
26 *482:B1 *57:10 8.00521e-05
27 *482:B1 *81:16 0
28 *482:B1 *82:20 0
29 *27:8 *491:B 0
30 *27:8 *537:A 0
31 *27:25 *470:A1 7.48695e-05
32 *27:25 *537:A 0
33 *27:25 *49:14 0.000182626
34 *27:29 *79:14 0
35 *27:29 *79:45 0
36 *27:40 *475:C 0
37 *27:40 *28:10 0
38 *27:40 *31:23 0.000447182
39 *27:40 *79:45 0
40 counter_value_o[5] *482:B1 0
41 *470:A2 *27:8 0
42 *524:A *27:25 7.93426e-05
43 *15:8 *27:40 0
*RES
1 *469:Y *27:8 21.9982 
2 *27:8 *470:B1 20 
3 *27:8 *27:25 48.5387 
4 *27:25 *27:29 23.0694 
5 *27:29 *474:B1 40.7519 
6 *27:29 *27:40 6.283 
7 *27:40 *482:B1 49.4245 
8 *27:40 *478:B1 47.7765 
*END

*D_NET *28 0.00354414
*CONN
*I *472:A2 I *D sg13cmos5l_o21ai_1
*I *473:C I *D sg13cmos5l_or3_1
*I *471:Y O *D sg13cmos5l_nand2_1
*CAP
1 *472:A2 0.000400077
2 *473:C 0
3 *471:Y 0.00054817
4 *28:14 0.000528689
5 *28:10 0.000676782
6 *472:A2 *472:B1 0.000592205
7 *472:A2 *472:A1 0.000559587
8 *472:A2 *45:24 0
9 *472:A2 *64:14 1.54556e-05
10 *472:A2 *81:8 0
11 *28:10 *471:B 0
12 *28:10 *474:A1 4.75278e-05
13 *28:10 *507:RESET_B 0
14 *28:10 *79:10 0
15 *28:14 *45:24 0.000175644
16 *28:14 *64:14 0
17 *27:40 *28:10 0
*RES
1 *471:Y *28:10 44.3466 
2 *28:10 *28:14 21.1845 
3 *28:14 *473:C 20 
4 *28:14 *472:A2 25.047 
*END

*D_NET *29 0.0014863
*CONN
*I *517:A I *D sg13cmos5l_dlygate4sd3_1
*I *472:Y O *D sg13cmos5l_o21ai_1
*CAP
1 *517:A 0.000606594
2 *472:Y 0.000606594
3 *517:A *472:B1 0.000144942
4 *517:A *473:B 4.79124e-05
5 *517:A *507:RESET_B 0
6 *517:A *30:10 8.02595e-05
7 *517:A *31:23 0
8 *517:A *45:24 0
*RES
1 *472:Y *517:A 46.0976 
*END

*D_NET *30 0.00105972
*CONN
*I *474:A2 I *D sg13cmos5l_a21oi_1
*I *473:X O *D sg13cmos5l_or3_1
*CAP
1 *474:A2 0
2 *473:X 0.000238792
3 *30:10 0.000238792
4 *30:10 *507:RESET_B 0
5 *517:A *30:10 8.02595e-05
6 *15:8 *30:10 0.000501875
*RES
1 *473:X *30:10 43.3578 
2 *30:10 *474:A2 40 
*END

*D_NET *31 0.00370561
*CONN
*I *476:A2 I *D sg13cmos5l_o21ai_1
*I *477:C I *D sg13cmos5l_or3_1
*I *475:Y O *D sg13cmos5l_nand3_1
*CAP
1 *476:A2 0
2 *477:C 0
3 *475:Y 0.000187368
4 *31:23 0.000662593
5 *31:8 0.000849961
6 *31:8 *475:B 0.000177399
7 *31:8 *475:A 8.02595e-05
8 *31:23 *475:A 8.00842e-05
9 *31:23 *476:A1 1.54008e-05
10 *31:23 *507:RESET_B 0
11 *31:23 *45:24 0.000207964
12 *31:23 *49:110 0.000394566
13 *31:23 *64:27 0.000177326
14 *31:23 *80:10 0
15 *478:B1 *31:23 0.000425502
16 *517:A *31:23 0
17 *27:40 *31:23 0.000447182
*RES
1 *475:Y *31:8 21.9673 
2 *31:8 *477:C 20 
3 *31:8 *31:23 48.1576 
4 *31:23 *476:A2 20 
*END

*D_NET *32 0.00249926
*CONN
*I *520:A I *D sg13cmos5l_dlygate4sd3_1
*I *476:Y O *D sg13cmos5l_o21ai_1
*CAP
1 *520:A 0.000111619
2 *476:Y 0.000929242
3 *32:10 0.00104086
4 *32:10 *475:A 0
5 *32:10 *43:40 0
6 *32:10 *50:8 0
7 *32:10 *64:27 0.000272952
8 *32:10 *80:10 0.000144583
9 *478:B1 *32:10 0
*RES
1 *476:Y *32:10 49.476 
2 *32:10 *520:A 40.9682 
*END

*D_NET *33 0.000998242
*CONN
*I *478:A2 I *D sg13cmos5l_a21oi_1
*I *477:X O *D sg13cmos5l_or3_1
*CAP
1 *478:A2 0
2 *477:X 0.000499121
3 *33:10 0.000499121
4 *33:10 *475:A 0
5 *478:B1 *33:10 0
6 *16:8 *33:10 0
*RES
1 *477:X *33:10 44.8066 
2 *33:10 *478:A2 40 
*END

*D_NET *34 0.00211775
*CONN
*I *481:C I *D sg13cmos5l_or3_1
*I *480:A2 I *D sg13cmos5l_o21ai_1
*I *479:Y O *D sg13cmos5l_nand4_1
*CAP
1 *481:C 0.000218356
2 *480:A2 0.000103082
3 *479:Y 0.000241749
4 *34:12 0.000563187
5 *480:A2 *480:B1 0.000143889
6 *480:A2 *480:A1 0.000175853
7 *481:C *481:A 0.000266733
8 *481:C *57:10 7.52158e-05
9 *34:12 *479:B 0
10 *34:12 *479:A 1.5412e-05
11 *34:12 *57:10 0.000234224
12 *482:B1 *34:12 8.00521e-05
*RES
1 *479:Y *34:12 42.4411 
2 *34:12 *480:A2 41.1845 
3 *34:12 *481:C 42.3381 
*END

*D_NET *35 0.000368597
*CONN
*I *514:A I *D sg13cmos5l_dlygate4sd3_1
*I *480:Y O *D sg13cmos5l_o21ai_1
*CAP
1 *514:A 0.000184298
2 *480:Y 0.000184298
*RES
1 *480:Y *514:A 42.3278 
*END

*D_NET *36 0.00167501
*CONN
*I *482:A2 I *D sg13cmos5l_a21oi_1
*I *481:X O *D sg13cmos5l_or3_1
*CAP
1 *482:A2 7.05717e-05
2 *481:X 0.000360062
3 *36:10 0.000430634
4 *482:A2 *482:A1 1.54118e-05
5 *482:A2 *82:20 0.000112179
6 *36:10 *481:A 0.000451923
7 *36:10 *540:A 0
8 *36:10 *57:10 0.000234224
9 *482:B1 *482:A2 0
*RES
1 *481:X *36:10 44.3157 
2 *36:10 *482:A2 40.7519 
*END

*D_NET *37 0.000427668
*CONN
*I *484:B I *D sg13cmos5l_and2_1
*I *483:X O *D sg13cmos5l_xor2_1
*CAP
1 *484:B 0
2 *483:X 0.00012278
3 *37:10 0.00012278
4 *37:10 *58:15 0
5 *18:8 *37:10 0.000182109
*RES
1 *483:X *37:10 41.6583 
2 *37:10 *484:B 40 
*END

*D_NET *38 0.00151375
*CONN
*I *486:B I *D sg13cmos5l_xnor2_1
*I *485:Y O *D sg13cmos5l_nand2_1
*CAP
1 *486:B 0.000481327
2 *485:Y 0.000481327
3 *486:B *485:A 0.000181194
4 *486:B *486:A 0.000369903
5 *486:B *69:35 0
*RES
1 *485:Y *486:B 44.4393 
*END

*D_NET *39 0.00108474
*CONN
*I *528:A I *D sg13cmos5l_dlygate4sd3_1
*I *486:Y O *D sg13cmos5l_xnor2_1
*CAP
1 *528:A 0.000242772
2 *486:Y 0.000130753
3 *39:8 0.000373525
4 *528:A *485:A 0
5 *528:A *489:B 0.000337693
6 *39:8 *69:35 0
*RES
1 *486:Y *39:8 41.339 
2 *39:8 *528:A 42.266 
*END

*D_NET *40 0.0017867
*CONN
*I *489:B I *D sg13cmos5l_xnor2_1
*I *488:Y O *D sg13cmos5l_nand3_1
*CAP
1 *489:B 0.000724502
2 *488:Y 0.000724502
3 *489:B *485:A 0
4 *528:A *489:B 0.000337693
*RES
1 *488:Y *489:B 46.4581 
*END

*D_NET *41 0.00246683
*CONN
*I *526:A I *D sg13cmos5l_dlygate4sd3_1
*I *489:Y O *D sg13cmos5l_xnor2_1
*CAP
1 *526:A 0.000131688
2 *489:Y 0.000531973
3 *41:10 0.000663661
4 *526:A *490:B 0
5 *526:A *536:A 0
6 *41:10 *489:A 0
7 *41:10 *71:10 0.0011395
*RES
1 *489:Y *41:10 45.6135 
2 *41:10 *526:A 41.1845 
*END

*D_NET *42 0.00114663
*CONN
*I *492:B I *D sg13cmos5l_and2_1
*I *491:Y O *D sg13cmos5l_xnor2_1
*CAP
1 *492:B 0.000236321
2 *491:Y 0.000166433
3 *42:8 0.000402754
4 *492:B *497:CLK 0
5 *492:B *499:CLK 0
6 *492:B *503:RESET_B 0
7 *42:8 *44:27 0
8 *42:8 *77:10 0.000341119
9 *23:8 *42:8 0
*RES
1 *491:Y *42:8 41.8334 
2 *42:8 *492:B 42.3999 
*END

*D_NET *43 0.00341689
*CONN
*I *511:A I *D sg13cmos5l_buf_8
*I *510:A I *D sg13cmos5l_buf_8
*I *509:X O *D sg13cmos5l_buf_8
*CAP
1 *511:A 6.04856e-05
2 *510:A 0.000134077
3 *509:X 0
4 *43:40 0.000827891
5 *43:31 0.000767406
6 *43:15 0.000880556
7 *43:6 0.000746479
8 *510:A *499:CLK 0
9 *510:A *501:CLK 0
10 *510:A *77:10 0
11 *511:A *45:8 0
12 *511:A *45:14 0
13 *43:15 *501:CLK 0
14 *43:15 *44:27 0
15 *43:15 *76:8 0
16 *43:15 *77:10 0
17 *43:15 *79:45 0
18 *43:40 *79:56 0
19 *43:40 *82:8 0
20 *32:10 *43:40 0
*RES
1 *509:X *43:6 40 
2 *43:6 *43:15 28.0546 
3 *43:15 *510:A 21.1845 
4 *509:X *43:31 40 
5 *43:31 *43:40 6.7053 
6 *43:40 *511:A 40.5356 
*END

*D_NET *44 0.0029533
*CONN
*I *501:CLK I *D sg13cmos5l_dfrbpq_1
*I *503:CLK I *D sg13cmos5l_dfrbpq_1
*I *499:CLK I *D sg13cmos5l_dfrbpq_1
*I *497:CLK I *D sg13cmos5l_dfrbpq_1
*I *510:X O *D sg13cmos5l_buf_8
*CAP
1 *501:CLK 0.000296894
2 *503:CLK 0.000139644
3 *499:CLK 0.000188267
4 *497:CLK 0.000371531
5 *510:X 0.000753317
6 *44:27 0.000596067
7 *44:4 0.000559798
8 *497:CLK *529:A 4.77863e-05
9 *497:CLK *47:24 0
10 *499:CLK *465:B 0
11 *503:CLK *469:A 0
12 *503:CLK *503:RESET_B 0
13 *44:27 *469:A 0
14 *44:27 *76:8 0
15 *44:27 *77:10 0
16 *466:A *501:CLK 0
17 *492:B *497:CLK 0
18 *492:B *499:CLK 0
19 *510:A *499:CLK 0
20 *510:A *501:CLK 0
21 *23:8 *44:27 0
22 *42:8 *44:27 0
23 *43:15 *501:CLK 0
24 *43:15 *44:27 0
*RES
1 *510:X *44:4 20 
2 *44:4 *497:CLK 23.9964 
3 *44:4 *499:CLK 22.266 
4 *510:X *44:27 44.3054 
5 *44:27 *503:CLK 41.4008 
6 *510:X *501:CLK 43.3475 
*END

*D_NET *45 0.00787137
*CONN
*I *495:CLK I *D sg13cmos5l_dfrbpq_1
*I *505:CLK I *D sg13cmos5l_dfrbpq_1
*I *493:CLK I *D sg13cmos5l_dfrbpq_1
*I *507:CLK I *D sg13cmos5l_dfrbpq_1
*I *511:X O *D sg13cmos5l_buf_8
*CAP
1 *495:CLK 2.61749e-05
2 *505:CLK 0.000859568
3 *493:CLK 0
4 *507:CLK 0
5 *511:X 0.000196388
6 *45:40 0.00107674
7 *45:24 0.000525599
8 *45:14 0.000948495
9 *45:8 0.000810284
10 *495:CLK *480:A1 1.54008e-05
11 *495:CLK *82:20 4.77425e-05
12 *505:CLK *480:A1 0.000106064
13 *505:CLK *49:29 0
14 *505:CLK *49:48 9.12376e-05
15 *505:CLK *49:57 0.000533967
16 *505:CLK *49:68 0.00053115
17 *505:CLK *67:8 0
18 *45:14 *475:A 0
19 *45:14 *493:RESET_B 0
20 *45:14 *519:A 0
21 *45:14 *49:72 0
22 *45:14 *82:12 0
23 *45:24 *471:B 0.00012816
24 *45:24 *472:B1 0.000274507
25 *45:24 *473:B 0.000112558
26 *45:24 *475:C 0.00044727
27 *45:24 *475:A 0.000265904
28 *45:24 *79:56 0.000287343
29 *45:40 *480:A1 7.52158e-05
30 *45:40 *48:8 0
31 *45:40 *82:20 0
32 *472:A2 *45:24 0
33 *511:A *45:8 0
34 *511:A *45:14 0
35 *517:A *45:24 0
36 *523:A *505:CLK 1.54556e-05
37 *22:23 *505:CLK 0.000112535
38 *28:14 *45:24 0.000175644
39 *31:23 *45:24 0.000207964
*RES
1 *511:X *45:8 22.0291 
2 *45:8 *45:14 3.8625 
3 *45:14 *45:24 46.9216 
4 *45:24 *507:CLK 20 
5 *45:14 *493:CLK 20 
6 *45:8 *45:40 21.8128 
7 *45:40 *505:CLK 49.2185 
8 *45:40 *495:CLK 40.3193 
*END

*D_NET *46 0.00038028
*CONN
*I *503:RESET_B I *D sg13cmos5l_dfrbpq_1
*I *504:L_HI O *D sg13cmos5l_tiehi
*CAP
1 *503:RESET_B 0.00019014
2 *504:L_HI 0.00019014
3 *492:B *503:RESET_B 0
4 *503:CLK *503:RESET_B 0
*RES
1 *504:L_HI *503:RESET_B 42.1836 
*END

*D_NET *47 0.00867617
*CONN
*I *483:A I *D sg13cmos5l_xor2_1
*I *485:A I *D sg13cmos5l_nand2_1
*I *488:A I *D sg13cmos5l_nand3_1
*I *465:A I *D sg13cmos5l_nand4_1
*I *531:X O *D sg13cmos5l_buf_1
*CAP
1 *483:A 0
2 *485:A 0.000789143
3 *488:A 0
4 *465:A 0
5 *531:X 0.00034225
6 *47:31 0.000812818
7 *47:24 0.000351879
8 *47:16 0.000755153
9 *47:12 0.00194165
10 *47:8 0.00190431
11 *485:A *486:A 0.000369903
12 *485:A *488:C 0
13 *485:A *58:39 0
14 *485:A *69:35 0
15 *47:12 *483:B 0
16 *47:12 *54:10 0.000339289
17 *47:16 *483:B 0
18 *47:16 *58:15 0
19 *47:16 *58:39 0
20 *47:24 *465:B 1.54008e-05
21 *47:24 *488:B 0.000341707
22 *47:24 *58:19 0
23 *47:24 *69:14 0
24 *47:24 *69:35 0
25 *47:24 *77:10 0.000106064
26 *47:24 *77:12 0.000425414
27 *47:31 *488:C 0
28 *47:31 *58:39 0
29 *486:B *485:A 0.000181194
30 *489:B *485:A 0
31 *497:CLK *47:24 0
32 *528:A *485:A 0
*RES
1 *531:X *47:8 43.3166 
2 *47:8 *47:12 36.9744 
3 *47:12 *47:16 4.1303 
4 *47:16 *47:24 44.8719 
5 *47:24 *465:A 20 
6 *47:16 *47:31 0.3193 
7 *47:31 *488:A 20 
8 *47:31 *485:A 27.6014 
9 *47:12 *483:A 20 
*END

*D_NET *48 0.00484891
*CONN
*I *533:A I *D sg13cmos5l_buf_1
*I *513:A I *D sg13cmos5l_dlygate4sd3_1
*I *495:Q O *D sg13cmos5l_dfrbpq_1
*CAP
1 *533:A 0
2 *513:A 0.000182742
3 *495:Q 0.000523131
4 *48:23 0.000951876
5 *48:8 0.00165775
6 *513:A *480:A1 0
7 *48:8 *49:68 0
8 *48:23 *56:8 0.000873186
9 *48:23 *60:10 0.000660227
10 *481:B *513:A 0
11 *515:A *48:23 0
12 *24:18 *48:8 0
13 *24:18 *48:23 0
14 *45:40 *48:8 0
*RES
1 *495:Q *48:8 44.3054 
2 *48:8 *513:A 41.6171 
3 *48:8 *48:23 32.0716 
4 *48:23 *533:A 20 
*END

*D_NET *49 0.0154039
*CONN
*I *480:A1 I *D sg13cmos5l_o21ai_1
*I *477:B I *D sg13cmos5l_or3_1
*I *472:A1 I *D sg13cmos5l_o21ai_1
*I *473:B I *D sg13cmos5l_or3_1
*I *476:A1 I *D sg13cmos5l_o21ai_1
*I *467:A2 I *D sg13cmos5l_o21ai_1
*I *468:C I *D sg13cmos5l_or3_1
*I *491:B I *D sg13cmos5l_xnor2_1
*I *512:X O *D sg13cmos5l_buf_1
*CAP
1 *480:A1 0.000449722
2 *477:B 0
3 *472:A1 0.000352099
4 *473:B 0.00015929
5 *476:A1 0.000208905
6 *467:A2 0
7 *468:C 9.95095e-05
8 *491:B 0.00045784
9 *512:X 4.99089e-05
10 *49:110 0.000148051
11 *49:78 0.000708067
12 *49:72 0.000830397
13 *49:68 0.00112536
14 *49:57 0.000559937
15 *49:48 0.000475099
16 *49:29 0.00078417
17 *49:14 0.00101083
18 *49:6 0.00097352
19 *472:A1 *475:C 0
20 *472:A1 *81:8 0
21 *473:B *61:8 0.00012816
22 *476:A1 *80:10 0
23 *480:A1 *495:RESET_B 0
24 *480:A1 *82:20 0.000466092
25 *491:B *469:A 0
26 *491:B *77:10 0
27 *49:6 *537:A 0
28 *49:14 *537:A 0
29 *49:14 *68:8 0
30 *49:14 *78:8 0
31 *49:29 *505:RESET_B 0
32 *49:48 *505:RESET_B 0
33 *49:72 *475:C 0
34 *49:72 *81:16 0
35 *49:72 *82:12 0.000241089
36 *49:72 *82:20 0.000257346
37 *49:78 *61:8 0.000287672
38 *49:78 *81:16 0
39 *49:110 *475:A 4.77425e-05
40 *49:110 *64:14 0.00050063
41 *466:A *491:B 0.000628951
42 *472:A2 *472:A1 0.000559587
43 *480:A2 *480:A1 0.000175853
44 *482:B1 *49:72 0.000756703
45 *495:CLK *480:A1 1.54008e-05
46 *505:CLK *480:A1 0.000106064
47 *505:CLK *49:29 0
48 *505:CLK *49:48 9.12376e-05
49 *505:CLK *49:57 0.000533967
50 *505:CLK *49:68 0.00053115
51 *512:A *49:6 7.9703e-05
52 *512:A *49:14 3.1663e-05
53 *513:A *480:A1 0
54 *517:A *473:B 4.79124e-05
55 *3:10 *49:14 0
56 *22:23 *49:48 0.000394981
57 *24:10 *49:29 7.51285e-05
58 *24:18 *49:14 0.000273767
59 *24:18 *49:29 0
60 *24:18 *49:57 0
61 *27:8 *491:B 0
62 *27:25 *49:14 0.000182626
63 *31:23 *476:A1 1.54008e-05
64 *31:23 *49:110 0.000394566
65 *45:14 *49:72 0
66 *45:24 *473:B 0.000112558
67 *45:40 *480:A1 7.52158e-05
68 *48:8 *49:68 0
*RES
1 *512:X *49:6 20.5356 
2 *49:6 *49:14 45.3354 
3 *49:14 *491:B 24.8616 
4 *49:6 *49:29 42.681 
5 *49:29 *468:C 20.9682 
6 *49:29 *49:48 24.3466 
7 *49:48 *467:A2 40 
8 *49:48 *49:57 2.575 
9 *49:57 *476:A1 41.8334 
10 *49:57 *49:68 2.575 
11 *49:68 *49:72 25.1409 
12 *49:72 *49:78 22.1224 
13 *49:78 *473:B 41.8437 
14 *49:78 *472:A1 44.0479 
15 *49:72 *49:110 42.6471 
16 *49:110 *477:B 20 
17 *49:68 *480:A1 44.841 
*END

*D_NET *50 0.00125314
*CONN
*I *493:RESET_B I *D sg13cmos5l_dfrbpq_1
*I *494:L_HI O *D sg13cmos5l_tiehi
*CAP
1 *493:RESET_B 4.93203e-05
2 *494:L_HI 0.000577248
3 *50:8 0.000626568
4 *493:RESET_B *475:A 0
5 *50:8 *66:8 0
6 *16:8 *50:8 0
7 *32:10 *50:8 0
8 *45:14 *493:RESET_B 0
*RES
1 *494:L_HI *50:8 46.283 
2 *50:8 *493:RESET_B 40.5356 
*END

*D_NET *51 0.00362659
*CONN
*I *499:RESET_B I *D sg13cmos5l_dfrbpq_1
*I *500:L_HI O *D sg13cmos5l_tiehi
*CAP
1 *499:RESET_B 0.000386508
2 *500:L_HI 0.000689664
3 *51:10 0.00107617
4 *499:RESET_B *465:B 0
5 *499:RESET_B *490:B 0.000176472
6 *499:RESET_B *58:54 0
7 *51:10 *58:54 0.00129777