*SPEF "ieee 1481-1999"
*DESIGN "counter_top"
*DATE "15:12:48 Saturday July 18, 2026"
*VENDOR "The OpenROAD Project"
*PROGRAM "OpenROAD"
*VERSION "dcf36133a369abc8f3c5e5738cd4d82e4903c0e0"
*DESIGN_FLOW "NAME_SCOPE LOCAL" "PIN_CAP NONE"
*DIVIDER /
*DELIMITER :
*BUS_DELIMITER []
*T_UNIT 1 NS
*C_UNIT 1 PF
*R_UNIT 1 OHM
*L_UNIT 1 HENRY

*NAME_MAP
*3 clock_i
*4 counter_value_o[0]
*5 counter_value_o[1]
*6 counter_value_o[2]
*7 counter_value_o[3]
*8 counter_value_o[4]
*9 counter_value_o[5]
*10 counter_value_o[6]
*11 counter_value_o[7]
*12 enable_i
*13 reset_n_i
*14 _00_
*15 _01_
*16 _02_
*17 _03_
*18 _04_
*19 _05_
*20 _06_
*21 _07_
*22 _08_
*23 _09_
*24 _10_
*25 _11_
*26 _12_
*27 _13_
*28 _14_
*29 _15_
*30 _16_
*31 _17_
*32 _18_
*33 _19_
*34 _20_
*35 _21_
*36 _22_
*37 _23_
*38 _24_
*39 _25_
*40 _26_
*41 _27_
*42 _28_
*43 _29_
*44 _30_
*45 clknet_0_clock_i
*46 clknet_1_0__leaf_clock_i
*47 clknet_1_1__leaf_clock_i
*48 net
*49 net1
*50 net10
*51 net11
*52 net12
*53 net13
*54 net14
*55 net15
*56 net16
*57 net17
*58 net18
*59 net19
*60 net2
*61 net20
*62 net21
*63 net22
*64 net23
*65 net24
*66 net25
*67 net26
*68 net27
*69 net28
*70 net29
*71 net3
*72 net30
*73 net31
*74 net32
*75 net33
*76 net34
*77 net4
*78 net5
*79 net6
*80 net7
*81 net8
*82 net9
*83 FILLER_0_0
*84 FILLER_0_105
*85 FILLER_0_112
*86 FILLER_0_119
*87 FILLER_0_121
*88 FILLER_0_14
*89 FILLER_0_21
*90 FILLER_0_28
*91 FILLER_0_35
*92 FILLER_0_42
*93 FILLER_0_49
*94 FILLER_0_56
*95 FILLER_0_63
*96 FILLER_0_7
*97 FILLER_0_70
*98 FILLER_0_77
*99 FILLER_0_84
*100 FILLER_0_91
*101 FILLER_0_98
*102 FILLER_10_0
*103 FILLER_10_104
*104 FILLER_10_106
*105 FILLER_10_117
*106 FILLER_10_12
*107 FILLER_10_121
*108 FILLER_10_19
*109 FILLER_10_26
*110 FILLER_10_28
*111 FILLER_10_60
*112 FILLER_10_67
*113 FILLER_10_7
*114 FILLER_10_74
*115 FILLER_11_0
*116 FILLER_11_15
*117 FILLER_11_22
*118 FILLER_11_29
*119 FILLER_11_55
*120 FILLER_11_73
*121 FILLER_11_80
*122 FILLER_11_87
*123 FILLER_11_94
*124 FILLER_11_98
*125 FILLER_12_0
*126 FILLER_12_107
*127 FILLER_12_111
*128 FILLER_12_15
*129 FILLER_12_22
*130 FILLER_12_4
*131 FILLER_12_56
*132 FILLER_12_60
*133 FILLER_12_76
*134 FILLER_12_78
*135 FILLER_12_88
*136 FILLER_12_95
*137 FILLER_12_97
*138 FILLER_13_0
*139 FILLER_13_14
*140 FILLER_13_21
*141 FILLER_13_28
*142 FILLER_13_32
*143 FILLER_13_61
*144 FILLER_13_65
*145 FILLER_13_7
*146 FILLER_13_94
*147 FILLER_14_105
*148 FILLER_14_109
*149 FILLER_14_115
*150 FILLER_14_117
*151 FILLER_14_17
*152 FILLER_14_24
*153 FILLER_14_35
*154 FILLER_14_39
*155 FILLER_14_4
*156 FILLER_14_44
*157 FILLER_14_46
*158 FILLER_14_60
*159 FILLER_14_8
*160 FILLER_14_81
*161 FILLER_14_88
*162 FILLER_14_90
*163 FILLER_14_95
*164 FILLER_14_99
*165 FILLER_1_102
*166 FILLER_1_109
*167 FILLER_1_11
*168 FILLER_1_116
*169 FILLER_1_120
*170 FILLER_1_18
*171 FILLER_1_25
*172 FILLER_1_32
*173 FILLER_1_39
*174 FILLER_1_4
*175 FILLER_1_46
*176 FILLER_1_53
*177 FILLER_1_60
*178 FILLER_1_67
*179 FILLER_1_74
*180 FILLER_1_81
*181 FILLER_1_88
*182 FILLER_1_95
*183 FILLER_2_0
*184 FILLER_2_105
*185 FILLER_2_112
*186 FILLER_2_119
*187 FILLER_2_121
*188 FILLER_2_14
*189 FILLER_2_21
*190 FILLER_2_28
*191 FILLER_2_35
*192 FILLER_2_42
*193 FILLER_2_49
*194 FILLER_2_56
*195 FILLER_2_63
*196 FILLER_2_7
*197 FILLER_2_70
*198 FILLER_2_77
*199 FILLER_2_84
*200 FILLER_2_91
*201 FILLER_2_98
*202 FILLER_3_0
*203 FILLER_3_105
*204 FILLER_3_112
*205 FILLER_3_119
*206 FILLER_3_121
*207 FILLER_3_14
*208 FILLER_3_21
*209 FILLER_3_28
*210 FILLER_3_35
*211 FILLER_3_42
*212 FILLER_3_49
*213 FILLER_3_56
*214 FILLER_3_63
*215 FILLER_3_7
*216 FILLER_3_70
*217 FILLER_3_77
*218 FILLER_3_84
*219 FILLER_3_91
*220 FILLER_3_98
*221 FILLER_4_0
*222 FILLER_4_105
*223 FILLER_4_112
*224 FILLER_4_119
*225 FILLER_4_121
*226 FILLER_4_14
*227 FILLER_4_21
*228 FILLER_4_28
*229 FILLER_4_35
*230 FILLER_4_42
*231 FILLER_4_49
*232 FILLER_4_56
*233 FILLER_4_63
*234 FILLER_4_7
*235 FILLER_4_70
*236 FILLER_4_77
*237 FILLER_4_84
*238 FILLER_4_91
*239 FILLER_4_98
*240 FILLER_5_0
*241 FILLER_5_105
*242 FILLER_5_112
*243 FILLER_5_119
*244 FILLER_5_121
*245 FILLER_5_14
*246 FILLER_5_21
*247 FILLER_5_28
*248 FILLER_5_32
*249 FILLER_5_42
*250 FILLER_5_49
*251 FILLER_5_56
*252 FILLER_5_63
*253 FILLER_5_7
*254 FILLER_5_70
*255 FILLER_5_77
*256 FILLER_5_84
*257 FILLER_5_91
*258 FILLER_5_98
*259 FILLER_6_0
*260 FILLER_6_105
*261 FILLER_6_112
*262 FILLER_6_119
*263 FILLER_6_121
*264 FILLER_6_14
*265 FILLER_6_21
*266 FILLER_6_28
*267 FILLER_6_56
*268 FILLER_6_60
*269 FILLER_6_7
*270 FILLER_6_88
*271 FILLER_6_95
*272 FILLER_7_0
*273 FILLER_7_19
*274 FILLER_7_26
*275 FILLER_7_28
*276 FILLER_7_74
*277 FILLER_8_104
*278 FILLER_8_108
*279 FILLER_8_11
*280 FILLER_8_119
*281 FILLER_8_121
*282 FILLER_8_18
*283 FILLER_8_25
*284 FILLER_8_29
*285 FILLER_8_4
*286 FILLER_8_44
*287 FILLER_8_46
*288 FILLER_8_56
*289 FILLER_8_78
*290 FILLER_8_85
*291 FILLER_8_89
*292 FILLER_9_0
*293 FILLER_9_100
*294 FILLER_9_107
*295 FILLER_9_114
*296 FILLER_9_121
*297 FILLER_9_14
*298 FILLER_9_21
*299 FILLER_9_28
*300 FILLER_9_48
*301 FILLER_9_55
*302 FILLER_9_61
*303 FILLER_9_68
*304 FILLER_9_7
*305 FILLER_9_75
*306 FILLER_9_82
*307 FILLER_9_87
*308 FILLER_9_93
*309 _39_
*310 _40_
*311 _41_
*312 _42_
*313 _43_
*314 _44_
*315 _45_
*316 _46_
*317 _47_
*318 _48_
*319 _49_
*320 _50_
*321 _51_
*322 _52_
*323 _53_
*324 _54_
*325 _55_
*326 _56_
*327 _57_
*328 _58_
*329 _59_
*330 _60_
*331 _61_
*332 _62_
*333 _63_
*334 _64_
*335 _65_
*336 _66_
*337 _67_
*338 _68_
*339 _69_
*340 _70_
*341 _70__12
*342 _71_
*343 _71__18
*344 _72_
*345 _72__16
*346 _73_
*347 _73__13
*348 _74_
*349 _74__17
*350 _75_
*351 _75__11
*352 _76_
*353 _76__15
*354 _77_
*355 _77__14
*356 clkbuf_0_clock_i
*357 clkbuf_1_0__f_clock_i
*358 clkbuf_1_1__f_clock_i
*359 hold19
*360 hold20
*361 hold21
*362 hold22
*363 hold23
*364 hold24
*365 hold25
*366 hold26
*367 hold27
*368 hold28
*369 hold29
*370 hold30
*371 hold31
*372 hold32
*373 hold33
*374 hold34
*375 hold35
*376 input1
*377 input2
*378 output10
*379 output3
*380 output4
*381 output5
*382 output6
*383 output7
*384 output8
*385 output9

*PORTS
clock_i I
counter_value_o[0] O
counter_value_o[1] O
counter_value_o[2] O
counter_value_o[3] O
counter_value_o[4] O
counter_value_o[5] O
counter_value_o[6] O
counter_value_o[7] O
enable_i I
reset_n_i I

*D_NET *3 0.00637268
*CONN
*P clock_i I
*I *356:A I *D sg13cmos5l_buf_8
*CAP
1 clock_i 0.00241763
2 *356:A 0.000115853
3 *3:10 0.000768713
4 *3:8 0.00307049
5 *356:A *26:37 0
6 *356:A *80:18 0
7 *3:8 *8:8 0
8 *3:8 *16:10 0
9 *3:8 *56:10 0
10 *3:8 *71:64 0
11 *3:8 *77:42 0
12 *3:8 *79:34 0
13 *3:10 *325:A 0
14 *3:10 *340:RESET_B 0
15 *3:10 *361:A 0
16 *3:10 *26:37 0
17 *3:10 *26:52 0
18 *3:10 *58:12 0
19 *3:10 *80:18 0
*RES
1 clock_i *3:8 44.6685 
2 *3:8 *3:10 6.8083 
3 *3:10 *356:A 21.1845 
*END

*D_NET *4 0.0022314
*CONN
*P counter_value_o[0] O
*I *379:X O *D sg13cmos5l_buf_1
*CAP
1 counter_value_o[0] 0.000356553
2 *379:X 0.000759149
3 *4:10 0.0011157
*RES
1 *379:X *4:10 45.4899 
2 *4:10 counter_value_o[0] 23.7286 
*END

*D_NET *5 0.00143136
*CONN
*P counter_value_o[1] O
*I *380:X O *D sg13cmos5l_buf_1
*CAP
1 counter_value_o[1] 0.000715679
2 *380:X 0.000715679
3 counter_value_o[1] *380:A 0
*RES
1 *380:X counter_value_o[1] 27.4881 
*END

*D_NET *6 0.00131332
*CONN
*P counter_value_o[2] O
*I *381:X O *D sg13cmos5l_buf_1
*CAP
1 counter_value_o[2] 0.00065666
2 *381:X 0.00065666
*RES
1 *381:X counter_value_o[2] 26.8907 
*END

*D_NET *7 0.00128731
*CONN
*P counter_value_o[3] O
*I *382:X O *D sg13cmos5l_buf_1
*CAP
1 counter_value_o[3] 0.000643653
2 *382:X 0.000643653
*RES
1 *382:X counter_value_o[3] 26.8907 
*END

*D_NET *8 0.00144216
*CONN
*P counter_value_o[4] O
*I *383:X O *D sg13cmos5l_buf_1
*CAP
1 counter_value_o[4] 0.000623143
2 *383:X 9.79391e-05
3 *8:8 0.000721082
4 *3:8 *8:8 0
*RES
1 *383:X *8:8 41.0918 
2 *8:8 counter_value_o[4] 26.5405 
*END

*D_NET *9 0.00128433
*CONN
*P counter_value_o[5] O
*I *384:X O *D sg13cmos5l_buf_1
*CAP
1 counter_value_o[5] 0.000642164
2 *384:X 0.000642164
*RES
1 *384:X counter_value_o[5] 26.8907 
*END

*D_NET *10 0.00128433
*CONN
*P counter_value_o[6] O
*I *385:X O *D sg13cmos5l_buf_1
*CAP
1 counter_value_o[6] 0.000642164
2 *385:X 0.000642164
*RES
1 *385:X counter_value_o[6] 26.8907 
*END

*D_NET *11 0.00185951
*CONN
*P counter_value_o[7] O
*I *378:X O *D sg13cmos5l_buf_1
*CAP
1 counter_value_o[7] 0.000841427
2 *378:X 8.83286e-05
3 *11:8 0.000929756
*RES
1 *378:X *11:8 41.0918 
2 *11:8 counter_value_o[7] 28.2297 
*END

*D_NET *12 0.00123688
*CONN
*P enable_i I
*I *376:A I *D sg13cmos5l_buf_1
*CAP
1 enable_i 0.00061844
2 *376:A 0.00061844
*RES
1 enable_i *376:A 47.2512 
*END

*D_NET *13 0.00134417
*CONN
*P reset_n_i I
*I *377:A I *D sg13cmos5l_buf_1
*CAP
1 reset_n_i 0.000672085
2 *377:A 0.000672085
3 *377:A *334:B 0
4 *377:A *60:6 0
*RES
1 reset_n_i *377:A 47.6838 
*END

*D_NET *14 0.00279899
*CONN
*I *352:D I *D sg13cmos5l_dfrbpq_1
*I *312:Y O *D sg13cmos5l_nor2_1
*CAP
1 *352:D 0.000490336
2 *312:Y 0.000400262
3 *14:8 0.000890598
4 *352:D *311:B 0.000144025
5 *352:D *348:RESET_B 0.000339683
6 *352:D *348:D 0
7 *352:D *366:A 0
8 *352:D *371:A 0
9 *352:D *381:A 0.000534083
10 *14:8 *22:12 0
11 *14:8 *24:8 0
12 *14:8 *45:11 0
13 *14:8 *65:29 0
14 *14:8 *75:10 0
*RES
1 *312:Y *14:8 44.0582 
2 *14:8 *352:D 45.5105 
*END

*D_NET *15 0.00149297
*CONN
*I *364:A I *D sg13cmos5l_dlygate4sd3_1
*I *318:Y O *D sg13cmos5l_a21oi_1
*CAP
1 *364:A 0
2 *318:Y 0.000625511
3 *15:10 0.000625511
4 *15:10 *317:B 0
5 *15:10 *317:C 4.77425e-05
6 *15:10 *27:6 0.000194204
7 *15:10 *27:17 0
8 *15:10 *53:8 0
9 *15:10 *62:19 0
10 *15:10 *78:8 0
11 *15:10 *78:15 0
*RES
1 *318:Y *15:10 46.4169 
2 *15:10 *364:A 40 
*END

*D_NET *16 0.0018388
*CONN
*I *361:A I *D sg13cmos5l_dlygate4sd3_1
*I *322:Y O *D sg13cmos5l_a21oi_1
*CAP
1 *361:A 5.42695e-05
2 *322:Y 0.000606721
3 *16:10 0.000660991
4 *361:A *340:RESET_B 8.0216e-05
5 *16:10 *319:C 0
6 *16:10 *383:A 0.000436603
7 *16:10 *79:17 0
8 *3:8 *16:10 0
9 *3:10 *361:A 0
*RES
1 *322:Y *16:10 46.2315 
2 *16:10 *361:A 40.5356 
*END

*D_NET *17 0.00140446
*CONN
*I *370:A I *D sg13cmos5l_dlygate4sd3_1
*I *327:X O *D sg13cmos5l_mux2_1
*CAP
1 *370:A 0
2 *327:X 0.000381774
3 *17:12 0.000381774
4 *17:12 *323:B 0
5 *17:12 *324:A 0.000250052
6 *17:12 *327:A0 0
7 *17:12 *327:A1 0
8 *17:12 *327:S 0
9 *17:12 *342:D 0.000177399
10 *17:12 *69:8 0.00021346
*RES
1 *327:X *17:12 44.6968 
2 *17:12 *370:A 40 
*END

*D_NET *18 0.000678506
*CONN
*I *368:A I *D sg13cmos5l_dlygate4sd3_1
*I *332:X O *D sg13cmos5l_mux2_1
*CAP
1 *368:A 0.000339253
2 *332:X 0.000339253
3 *368:A *332:A0 0
4 *368:A *344:RESET_B 0
5 *368:A *359:A 0
*RES
1 *332:X *368:A 43.8522 
*END

*D_NET *19 0.0018806
*CONN
*I *346:D I *D sg13cmos5l_dfrbpq_1
*I *334:X O *D sg13cmos5l_and2_1
*CAP
1 *346:D 0
2 *334:X 0.00060973
3 *19:10 0.00060973
4 *19:10 *333:B 0
5 *19:10 *52:10 0.000661144
6 *19:10 *74:8 0
*RES
1 *334:X *19:10 47.8692 
2 *19:10 *346:D 40 
*END

*D_NET *20 0.00191261
*CONN
*I *348:D I *D sg13cmos5l_dfrbpq_1
*I *337:X O *D sg13cmos5l_and2_1
*CAP
1 *348:D 0.000130973
2 *337:X 0.00049501
3 *20:8 0.000625984
4 *20:8 *336:A 0
5 *20:8 *43:10 0
6 *20:8 *49:45 0.000660642
7 *352:D *348:D 0
*RES
1 *337:X *20:8 46.0358 
2 *20:8 *348:D 41.1845 
*END

*D_NET *21 9.45957e-05
*CONN
*I *350:D I *D sg13cmos5l_dfrbpq_1
*I *339:X O *D sg13cmos5l_and2_1
*CAP
1 *350:D 4.72978e-05
2 *339:X 4.72978e-05
*RES
1 *339:X *350:D 40.5974 
*END

*D_NET *22 0.0028578
*CONN
*I *322:B1 I *D sg13cmos5l_a21oi_1
*I *318:B1 I *D sg13cmos5l_a21oi_1
*I *312:A I *D sg13cmos5l_nor2_1
*I *309:Y O *D sg13cmos5l_inv_1
*CAP
1 *322:B1 0.000602096
2 *318:B1 0.000143181
3 *312:A 4.18906e-05
4 *309:Y 0.000274368
5 *22:23 0.000865953
6 *22:12 0.000436935
7 *312:A *46:27 0
8 *312:A *71:26 7.58489e-05
9 *318:B1 *27:6 0.000209681
10 *318:B1 *78:15 0
11 *322:B1 *315:B 0
12 *322:B1 *319:B 0.000112358
13 *322:B1 *319:C 0
14 *322:B1 *383:A 0
15 *322:B1 *26:52 0
16 *322:B1 *27:6 4.77425e-05
17 *322:B1 *30:8 0
18 *322:B1 *31:14 0
19 *322:B1 *65:14 0
20 *322:B1 *78:23 4.77425e-05
21 *22:12 *45:11 0
22 *22:12 *46:27 0
23 *22:12 *60:27 0
24 *22:12 *71:26 0
25 *14:8 *22:12 0
*RES
1 *309:Y *22:12 42.6574 
2 *22:12 *312:A 40.5073 
3 *22:12 *22:23 1.0918 
4 *22:23 *318:B1 41.4008 
5 *22:23 *322:B1 46.1182 
*END

*D_NET *23 0.00210521
*CONN
*I *311:B I *D sg13cmos5l_xor2_1
*I *310:Y O *D sg13cmos5l_nand4_1
*CAP
1 *311:B 0.000146637
2 *310:Y 0.000367862
3 *23:8 0.000514499
4 *311:B *366:A 0
5 *311:B *65:29 0
6 *23:8 *65:29 0.00093219
7 *23:8 *71:30 0
8 *352:D *311:B 0.000144025
*RES
1 *310:Y *23:8 44.3054 
2 *23:8 *311:B 41.6171 
*END

*D_NET *24 0.000823563
*CONN
*I *366:A I *D sg13cmos5l_dlygate4sd3_1
*I *311:X O *D sg13cmos5l_xor2_1
*CAP
1 *366:A 0.000276031
2 *311:X 0.00013575
3 *24:8 0.000411782
4 *366:A *312:B 0
5 *366:A *371:A 0
6 *366:A *46:6 0
7 *366:A *46:27 0
8 *24:8 *26:10 0
9 *24:8 *75:10 0
10 *311:B *366:A 0
11 *352:D *366:A 0
12 *14:8 *24:8 0
*RES
1 *311:X *24:8 41.5862 
2 *24:8 *366:A 42.4823 
*END

*D_NET *25 0.00087757
*CONN
*I *314:A I *D sg13cmos5l_buf_4
*I *313:Y O *D sg13cmos5l_nand3_1
*CAP
1 *314:A 0
2 *313:Y 0.000438785
3 *25:10 0.000438785
4 *25:10 *49:21 0
*RES
1 *313:Y *25:10 44.7174 
2 *25:10 *314:A 40 
*END

*D_NET *26 0.00869891
*CONN
*I *338:B I *D sg13cmos5l_xnor2_1
*I *331:B I *D sg13cmos5l_nor4_2
*I *326:A I *D sg13cmos5l_nor3_1
*I *316:A1 I *D sg13cmos5l_o21ai_1
*I *320:A1 I *D sg13cmos5l_o21ai_1
*I *321:B I *D sg13cmos5l_or3_1
*I *317:B I *D sg13cmos5l_or3_1
*I *314:X O *D sg13cmos5l_buf_4
*CAP
1 *338:B 2.26794e-05
2 *331:B 0.000278664
3 *326:A 5.0665e-05
4 *316:A1 5.55289e-05
5 *320:A1 0
6 *321:B 0
7 *317:B 0.000199423
8 *314:X 0.000145604
9 *26:74 0.000733608
10 *26:59 0.000585087
11 *26:52 0.000215479
12 *26:37 0.000748181
13 *26:33 0.000964017
14 *26:18 0.000903955
15 *26:12 0.000421175
16 *26:10 0.000145604
17 *316:A1 *316:A2 4.77534e-05
18 *316:A1 *80:18 0
19 *317:B *318:A1 0
20 *317:B *27:17 7.52158e-05
21 *317:B *78:8 0
22 *326:A *27:32 0
23 *331:B *331:D 0
24 *331:B *27:40 0.000274594
25 *331:B *40:12 0
26 *26:10 *75:10 7.52149e-05
27 *26:18 *350:RESET_B 1.54556e-05
28 *26:18 *375:A 0
29 *26:18 *46:27 0
30 *26:18 *60:23 0
31 *26:18 *60:27 0
32 *26:18 *75:10 0
33 *26:33 *27:17 0.000662302
34 *26:33 *60:27 0
35 *26:37 *318:A2 0
36 *26:37 *321:A 1.54008e-05
37 *26:37 *30:8 0
38 *26:37 *62:32 0
39 *26:52 *319:B 0.000128576
40 *26:52 *321:A 3.23417e-05
41 *26:52 *30:8 1.54556e-05
42 *26:52 *58:12 4.77425e-05
43 *26:52 *58:27 0.000288502
44 *26:52 *80:18 0.000318607
45 *26:59 *27:17 0.000319765
46 *26:59 *27:32 7.51285e-05
47 *26:59 *60:27 0
48 *26:74 *323:B 0
49 *26:74 *324:B_N 0.000144861
50 *26:74 *27:32 0.000692322
51 *26:74 *60:27 0
52 *322:B1 *26:52 0
53 *356:A *26:37 0
54 *3:10 *26:37 0
55 *3:10 *26:52 0
56 *15:10 *317:B 0
57 *24:8 *26:10 0
*RES
1 *314:X *26:10 41.9055 
2 *26:10 *26:12 20 
3 *26:12 *26:18 24.4393 
4 *26:18 *317:B 42.472 
5 *26:18 *26:33 4.3054 
6 *26:33 *26:37 25.7268 
7 *26:37 *321:B 20 
8 *26:37 *26:52 43.1518 
9 *26:52 *320:A1 20 
10 *26:33 *26:59 1.8334 
11 *26:59 *316:A1 40.5356 
12 *26:59 *26:74 25.2118 
13 *26:74 *326:A 20.5356 
14 *26:74 *331:B 23.4608 
15 *26:12 *338:B 20.3193 
*END

*D_NET *27 0.00644432
*CONN
*I *326:B I *D sg13cmos5l_nor3_1
*I *331:C I *D sg13cmos5l_nor4_2
*I *316:A2 I *D sg13cmos5l_o21ai_1
*I *317:C I *D sg13cmos5l_or3_1
*I *315:Y O *D sg13cmos5l_nand2_2
*CAP
1 *326:B 0
2 *331:C 0
3 *316:A2 3.021e-05
4 *317:C 3.01005e-05
5 *315:Y 0.000301515
6 *27:40 0.000269504
7 *27:32 0.000697444
8 *27:17 0.000647585
9 *27:6 0.00052105
10 *316:A2 *62:8 1.54008e-05
11 *316:A2 *62:32 4.77425e-05
12 *27:6 *318:A1 0.000274633
13 *27:6 *78:15 0
14 *27:17 *62:19 0.000770024
15 *27:32 *324:B_N 0.000177203
16 *27:32 *327:S 0
17 *27:32 *331:D 1.54556e-05
18 *27:32 *35:14 0
19 *27:40 *331:D 0
20 *27:40 *60:38 0
21 *316:A1 *316:A2 4.77534e-05
22 *317:B *27:17 7.52158e-05
23 *318:B1 *27:6 0.000209681
24 *322:B1 *27:6 4.77425e-05
25 *326:A *27:32 0
26 *331:B *27:40 0.000274594
27 *15:10 *317:C 4.77425e-05
28 *15:10 *27:6 0.000194204
29 *15:10 *27:17 0
30 *26:33 *27:17 0.000662302
31 *26:59 *27:17 0.000319765
32 *26:59 *27:32 7.51285e-05
33 *26:74 *27:32 0.000692322
*RES
1 *315:Y *27:6 23.5638 
2 *27:6 *317:C 20.3193 
3 *27:6 *27:17 24.5526 
4 *27:17 *316:A2 40.3193 
5 *27:17 *27:32 25.6135 
6 *27:32 *27:40 42.9252 
7 *27:40 *331:C 20 
8 *27:32 *326:B 20 
*END

*D_NET *28 9.45957e-05
*CONN
*I *363:A I *D sg13cmos5l_dlygate4sd3_1
*I *316:Y O *D sg13cmos5l_o21ai_1
*CAP
1 *363:A 4.72978e-05
2 *316:Y 4.72978e-05
*RES
1 *316:Y *363:A 40.5974 
*END

*D_NET *29 0.000433001
*CONN
*I *318:A2 I *D sg13cmos5l_a21oi_1
*I *317:X O *D sg13cmos5l_or3_1
*CAP
1 *318:A2 0.000216501
2 *317:X 0.000216501
3 *318:A2 *318:A1 0
4 *26:37 *318:A2 0
*RES
1 *317:X *318:A2 42.4617 
*END

*D_NET *30 0.000902352
*CONN
*I *320:A2 I *D sg13cmos5l_o21ai_1
*I *321:C I *D sg13cmos5l_or3_1
*I *319:Y O *D sg13cmos5l_nand3_1
*CAP
1 *320:A2 0
2 *321:C 0
3 *319:Y 0.000113227
4 *30:14 0.000178269
5 *30:8 0.000291497
6 *30:8 *58:27 1.54008e-05
7 *30:14 *45:11 0
8 *30:14 *58:27 0.000288502
9 *30:14 *80:18 0
10 *322:B1 *30:8 0
11 *26:37 *30:8 0
12 *26:52 *30:8 1.54556e-05
*RES
1 *319:Y *30:8 21.3802 
2 *30:8 *30:14 42.3278 
3 *30:14 *321:C 20 
4 *30:8 *320:A2 20 
*END

*D_NET *31 0.00121826
*CONN
*I *360:A I *D sg13cmos5l_dlygate4sd3_1
*I *320:Y O *D sg13cmos5l_o21ai_1
*CAP
1 *360:A 0
2 *320:Y 0.000309953
3 *31:14 0.000309953
4 *31:14 *322:A2 0.000144063
5 *31:14 *383:A 0.00011184
6 *31:14 *58:12 0.00034245
7 *31:14 *80:18 0
8 *322:B1 *31:14 0
*RES
1 *320:Y *31:14 44.1818 
2 *31:14 *360:A 40 
*END

*D_NET *32 0.000497214
*CONN
*I *322:A2 I *D sg13cmos5l_a21oi_1
*I *321:X O *D sg13cmos5l_or3_1
*CAP
1 *322:A2 0.000168847
2 *321:X 0.000168847
3 *322:A2 *322:A1 1.54556e-05
4 *322:A2 *383:A 0
5 *322:A2 *58:12 0
6 *31:14 *322:A2 0.000144063
*RES
1 *321:X *322:A2 41.751 
*END

*D_NET *33 0.000797717
*CONN
*I *327:A0 I *D sg13cmos5l_mux2_1
*I *323:X O *D sg13cmos5l_and2_1
*CAP
1 *327:A0 0.000358755
2 *323:X 0.000358755
3 *327:A0 *323:B 8.02059e-05
4 *327:A0 *327:S 0
5 *327:A0 *80:10 0
6 *17:12 *327:A0 0
*RES
1 *323:X *327:A0 43.5535 
*END

*D_NET *34 0.000371846
*CONN
*I *327:A1 I *D sg13cmos5l_mux2_1
*I *324:Y O *D sg13cmos5l_nor2b_1
*CAP
1 *327:A1 0.000185923
2 *324:Y 0.000185923
3 *327:A1 *327:S 0
4 *17:12 *327:A1 0
*RES
1 *324:Y *327:A1 41.7819 
*END

*D_NET *35 0.000897656
*CONN
*I *331:D I *D sg13cmos5l_nor4_2
*I *326:C I *D sg13cmos5l_nor3_1
*I *325:Y O *D sg13cmos5l_nand2_1
*CAP
1 *331:D 0.000262316
2 *326:C 0
3 *325:Y 0.000156298
4 *35:14 0.000418614
5 *331:D *325:A 0
6 *35:14 *325:A 7.34141e-06
7 *35:14 *327:S 3.7631e-05
8 *35:14 *80:18 0
9 *331:B *331:D 0
10 *27:32 *331:D 1.54556e-05
11 *27:32 *35:14 0
12 *27:40 *331:D 0
*RES
1 *325:Y *35:14 21.9364 
2 *35:14 *326:C 20 
3 *35:14 *331:D 23.1261 
*END

*D_NET *36 0.000846954
*CONN
*I *327:S I *D sg13cmos5l_mux2_1
*I *326:Y O *D sg13cmos5l_nor3_1
*CAP
1 *327:S 0.000404661
2 *326:Y 0.000404661
3 *327:S *324:B_N 0
4 *327:S *80:10 0
5 *327:S *80:18 0
6 *327:A0 *327:S 0
7 *327:A1 *327:S 0
8 *17:12 *327:S 0
9 *27:32 *327:S 0
10 *35:14 *327:S 3.7631e-05
*RES
1 *326:Y *327:S 44.1612 
*END

*D_NET *37 0.000606085
*CONN
*I *332:A0 I *D sg13cmos5l_mux2_1
*I *328:X O *D sg13cmos5l_and2_1
*CAP
1 *332:A0 0.000263
2 *328:X 0.000263
3 *332:A0 *330:A 0
4 *332:A0 *332:A1 0
5 *332:A0 *332:S 8.00842e-05
6 *332:A0 *47:12 0
7 *368:A *332:A0 0
*RES
1 *328:X *332:A0 42.8119 
*END

*D_NET *38 0.00127237
*CONN
*I *332:A1 I *D sg13cmos5l_mux2_1
*I *329:Y O *D sg13cmos5l_nor2b_1
*CAP
1 *332:A1 0.000183109
2 *329:Y 0.000389107
3 *38:10 0.000572216
4 *332:A1 *330:A 8.01933e-05
5 *332:A1 *40:12 0
6 *38:10 *330:A 0
7 *38:10 *47:12 0
8 *38:10 *67:12 4.77425e-05
9 *38:10 *67:20 0
10 *332:A0 *332:A1 0
*RES
1 *329:Y *38:10 43.3887 
2 *38:10 *332:A1 41.8334 
*END

*D_NET *39 0.000133739
*CONN
*I *331:A I *D sg13cmos5l_nor4_2
*I *330:Y O *D sg13cmos5l_inv_1
*CAP
1 *331:A 6.68694e-05
2 *330:Y 6.68694e-05
*RES
1 *330:Y *331:A 40.8446 
*END

*D_NET *40 0.0012627
*CONN
*I *332:S I *D sg13cmos5l_mux2_1
*I *331:Y O *D sg13cmos5l_nor4_2
*CAP
1 *332:S 5.08741e-05
2 *331:Y 0.000540431
3 *40:12 0.000591305
4 *40:12 *330:A 0
5 *40:12 *45:22 0
6 *40:12 *45:31 0
7 *331:B *40:12 0
8 *332:A0 *332:S 8.00842e-05
9 *332:A1 *40:12 0
*RES
1 *331:Y *40:12 45.1912 
2 *40:12 *332:S 40.5356 
*END

*D_NET *41 0.00027288
*CONN
*I *334:B I *D sg13cmos5l_and2_1
*I *333:X O *D sg13cmos5l_xor2_1
*CAP
1 *334:B 0.00013644
2 *333:X 0.00013644
3 *334:B *333:B 0
4 *334:B *49:21 0
5 *377:A *334:B 0
*RES
1 *333:X *334:B 41.6583 
*END

*D_NET *42 0.000546223
*CONN
*I *336:B I *D sg13cmos5l_xnor2_1
*I *335:Y O *D sg13cmos5l_nand2_1
*CAP
1 *336:B 0.000144321
2 *335:Y 0.000144321
3 *336:B *313:B 0
4 *336:B *71:34 0.00020973
5 *336:B *71:64 4.78524e-05
*RES
1 *335:Y *336:B 41.6171 
*END

*D_NET *43 0.000721387
*CONN
*I *372:A I *D sg13cmos5l_dlygate4sd3_1
*I *336:Y O *D sg13cmos5l_xnor2_1
*CAP
1 *372:A 0
2 *336:Y 0.000255875
3 *43:10 0.000255875
4 *43:10 *337:B 0
5 *43:10 *71:64 0.000209637
6 *20:8 *43:10 0
*RES
1 *336:Y *43:10 42.987 
2 *43:10 *372:A 40 
*END

*D_NET *44 0.000307976
*CONN
*I *375:A I *D sg13cmos5l_dlygate4sd3_1
*I *338:Y O *D sg13cmos5l_xnor2_1
*CAP
1 *375:A 0.000153988
2 *338:Y 0.000153988
3 *375:A *350:RESET_B 0
4 *26:18 *375:A 0
*RES
1 *338:Y *375:A 41.6171 
*END

*D_NET *45 0.00344708
*CONN
*I *358:A I *D sg13cmos5l_buf_8
*I *357:A I *D sg13cmos5l_buf_8
*I *356:X O *D sg13cmos5l_buf_8
*CAP
1 *358:A 0
2 *357:A 0
3 *356:X 0
4 *45:31 0.000605733
5 *45:22 0.00078435
6 *45:11 0.000939191
7 *45:6 0.000939191
8 *45:4 0.000178617
9 *45:11 *319:A 0
10 *45:11 *62:32 0
11 *45:11 *65:29 0
12 *45:11 *78:23 0
13 *45:22 *325:A 0
14 *45:31 *325:A 0
15 *14:8 *45:11 0
16 *22:12 *45:11 0
17 *30:14 *45:11 0
18 *40:12 *45:22 0
19 *40:12 *45:31 0
*RES
1 *356:X *45:4 20 
2 *45:4 *45:6 20 
3 *45:6 *45:11 9.991 
4 *45:11 *357:A 40 
5 *45:4 *45:22 1.6171 
6 *45:22 *45:31 26.5405 
7 *45:31 *358:A 40 
*END

*D_NET *46 0.0038779
*CONN
*I *350:CLK I *D sg13cmos5l_dfrbpq_1
*I *346:CLK I *D sg13cmos5l_dfrbpq_1
*I *352:CLK I *D sg13cmos5l_dfrbpq_1
*I *348:CLK I *D sg13cmos5l_dfrbpq_1
*I *357:X O *D sg13cmos5l_buf_8
*CAP
1 *350:CLK 0.000173435
2 *346:CLK 6.96777e-05
3 *352:CLK 0.000315639
4 *348:CLK 0
5 *357:X 0.00111336
6 *46:27 0.000990644
7 *46:6 0.00068147
8 *350:CLK *71:26 0
9 *352:CLK *312:B 0
10 *352:CLK *352:RESET_B 0
11 *352:CLK *371:A 0
12 *352:CLK *65:10 0
13 *352:CLK *77:42 0
14 *46:6 *310:C 0
15 *46:6 *312:B 0
16 *46:6 *371:A 0
17 *46:6 *65:10 0
18 *46:27 *309:A 0.000129685
19 *46:27 *312:B 0
20 *46:27 *350:RESET_B 0
21 *46:27 *60:23 0.000403989
22 *46:27 *71:26 0
23 *312:A *46:27 0
24 *366:A *46:6 0
25 *366:A *46:27 0
26 *22:12 *46:27 0
27 *26:18 *46:27 0
*RES
1 *357:X *46:6 23.3475 
2 *46:6 *348:CLK 20 
3 *46:6 *352:CLK 23.605 
4 *357:X *46:27 27.9831 
5 *46:27 *346:CLK 20.8549 
6 *46:27 *350:CLK 22.9561 
*END

*D_NET *47 0.00596793
*CONN
*I *344:CLK I *D sg13cmos5l_dfrbpq_1
*I *340:CLK I *D sg13cmos5l_dfrbpq_1
*I *342:CLK I *D sg13cmos5l_dfrbpq_1
*I *354:CLK I *D sg13cmos5l_dfrbpq_1
*I *358:X O *D sg13cmos5l_buf_8
*CAP
1 *344:CLK 0
2 *340:CLK 0.000550812
3 *342:CLK 0
4 *354:CLK 0
5 *358:X 2.36489e-05
6 *47:36 0.00110424
7 *47:18 0.000866843
8 *47:12 0.00165383
9 *47:6 0.00136407
10 *47:12 *323:A 0
11 *47:12 *328:B 3.24568e-05
12 *47:12 *330:A 0
13 *47:12 *385:A 0
14 *47:12 *60:57 0.00037203
15 *47:12 *67:12 0
16 *47:12 *82:19 0
17 *47:18 *323:A 0
18 *47:18 *342:RESET_B 0
19 *47:36 *385:A 0
20 *332:A0 *47:12 0
21 *38:10 *47:12 0
*RES
1 *358:X *47:6 20.3502 
2 *47:6 *47:12 8.652 
3 *47:12 *47:18 30.7738 
4 *47:18 *354:CLK 40 
5 *47:12 *342:CLK 20 
6 *47:6 *47:36 25.5208 
7 *47:36 *340:CLK 47.0246 
8 *47:36 *344:CLK 40 
*END

*D_NET *48 0.000557635
*CONN
*I *350:RESET_B I *D sg13cmos5l_dfrbpq_1
*I *351:L_HI O *D sg13cmos5l_tiehi
*CAP
1 *350:RESET_B 0.00027109
2 *351:L_HI 0.00027109
3 *350:RESET_B *339:B 0
4 *375:A *350:RESET_B 0
5 *26:18 *350:RESET_B 1.54556e-05
6 *46:27 *350:RESET_B 0
*RES
1 *351:L_HI *350:RESET_B 42.8634 
*END

*D_NET *49 0.00840193
*CONN
*I *310:B I *D sg13cmos5l_nand4_1
*I *313:A I *D sg13cmos5l_nand3_1
*I *335:A I *D sg13cmos5l_nand2_1
*I *333:A I *D sg13cmos5l_xor2_1
*I *376:X O *D sg13cmos5l_buf_1
*CAP
1 *310:B 0
2 *313:A 0
3 *335:A 5.13038e-05
4 *333:A 0
5 *376:X 0.000223929
6 *49:45 0.000892193
7 *49:34 0.000986211
8 *49:21 0.000660123
9 *49:12 0.00165132
10 *49:8 0.00136044
11 *335:A *71:49 0.000182109
12 *49:12 *333:B 0
13 *49:12 *52:10 0
14 *49:21 *335:B 0
15 *49:21 *71:49 1.54008e-05
16 *49:34 *71:49 7.51285e-05
17 *49:45 *313:B 0
18 *49:45 *381:A 0.000822229
19 *49:45 *71:30 0
20 *49:45 *71:64 0
21 *49:45 *72:8 0.000767536
22 *49:45 *78:38 5.33604e-05
23 *334:B *49:21 0
24 *20:8 *49:45 0.000660642
25 *25:10 *49:21 0
*RES
1 *376:X *49:8 42.8222 
2 *49:8 *49:12 31.3506 
3 *49:12 *333:A 20 
4 *49:12 *49:21 25.7268 
5 *49:21 *335:A 40.8446 
6 *49:21 *49:34 21.0918 
7 *49:34 *313:A 20 
8 *49:34 *49:45 30.9901 
9 *49:45 *310:B 40 
*END

*D_NET *50 0.000686172
*CONN
*I *378:A I *D sg13cmos5l_buf_1
*I *367:A I *D sg13cmos5l_dlygate4sd3_1
*I *344:Q O *D sg13cmos5l_dfrbpq_1
*CAP
1 *378:A 0.000197453
2 *367:A 0.000145634
3 *344:Q 0.000343086
4 *367:A *385:A 0
5 *378:A *385:A 0
*RES
1 *344:Q *367:A 41.6171 
2 *344:Q *378:A 42.3175 
*END

*D_NET *51 0.000765763
*CONN
*I *340:RESET_B I *D sg13cmos5l_dfrbpq_1
*I *341:L_HI O *D sg13cmos5l_tiehi
*CAP
1 *340:RESET_B 0.000342774
2 *341:L_HI 0.000342774
3 *340:RESET_B *340:D 0
4 *361:A *340:RESET_B 8.0216e-05
5 *3:10 *340:RESET_B 0
*RES
1 *341:L_HI *340:RESET_B 43.9552 
*END

*D_NET *52 0.00159603
*CONN
*I *346:RESET_B I *D sg13cmos5l_dfrbpq_1
*I *347:L_HI O *D sg13cmos5l_tiehi
*CAP
1 *346:RESET_B 0
2 *347:L_HI 0.000467441
3 *52:10 0.000467441
4 *52:10 *74:8 0
5 *19:10 *52:10 0.000661144
6 *49:12 *52:10 0
*RES
1 *347:L_HI *52:10 45.8916 
2 *52:10 *346:RESET_B 40 
*END

*D_NET *53 0.000594548
*CONN
*I *354:RESET_B I *D sg13cmos5l_dfrbpq_1
*I *355:L_HI O *D sg13cmos5l_tiehi
*CAP
1 *354:RESET_B 0.000170001
2 *355:L_HI 0.000127273
3 *53:8 0.000297274
4 *354:RESET_B *354:D 0
5 *53:8 *62:19 0
6 *15:10 *53:8 0
*RES
1 *355:L_HI *53:8 41.339 
2 *53:8 *354:RESET_B 41.8334 
*END

*D_NET *54 0.000529174
*CONN
*I *352:RESET_B I *D sg13cmos5l_dfrbpq_1
*I *353:L_HI O *D sg13cmos5l_tiehi
*CAP
1 *352:RESET_B 0.000264587
2 *353:L_HI 0.000264587
3 *352:RESET_B *77:42 0
4 *352:RESET_B *79:34 0
5 *352:CLK *352:RESET_B 0
*RES
1 *353:L_HI *352:RESET_B 42.8634 
*END

*D_NET *55 0.000499979
*CONN
*I *344:RESET_B I *D sg13cmos5l_dfrbpq_1
*I *345:L_HI O *D sg13cmos5l_tiehi
*CAP
1 *344:RESET_B 0.00024999
2 *345:L_HI 0.00024999
3 *344:RESET_B *384:A 0
4 *368:A *344:RESET_B 0
*RES
1 *345:L_HI *344:RESET_B 42.8634 
*END

*D_NET *56 0.00236043
*CONN
*I *348:RESET_B I *D sg13cmos5l_dfrbpq_1
*I *349:L_HI O *D sg13cmos5l_tiehi
*CAP
1 *348:RESET_B 0.000330288
2 *349:L_HI 0.000680085
3 *56:10 0.00101037
4 *348:RESET_B *381:A 0
5 *56:10 *380:A 0
6 *56:10 *71:64 0
7 *352:D *348:RESET_B 0.000339683
8 *3:8 *56:10 0
*RES
1 *349:L_HI *56:10 46.5096 
2 *56:10 *348:RESET_B 43.5638 
*END

*D_NET *57 0.000474925
*CONN
*I *342:RESET_B I *D sg13cmos5l_dfrbpq_1
*I *343:L_HI O *D sg13cmos5l_tiehi
*CAP
1 *342:RESET_B 0.000237463
2 *343:L_HI 0.000237463
3 *342:RESET_B *323:A 0
4 *47:18 *342:RESET_B 0
*RES
1 *343:L_HI *342:RESET_B 42.4308 
*END

*D_NET *58 0.00336711
*CONN
*I *325:A I *D sg13cmos5l_nand2_1
*I *320:B1 I *D sg13cmos5l_o21ai_1
*I *321:A I *D sg13cmos5l_or3_1
*I *359:X O *D sg13cmos5l_dlygate4sd3_1
*CAP
1 *325:A 0.000707114
2 *320:B1 0
3 *321:A 2.1512e-05
4 *359:X 0
5 *58:27 7.836e-05
6 *58:12 0.000457599
7 *58:6 0.00106484
8 *325:A *80:18 0
9 *58:12 *80:18 0
10 *322:A2 *58:12 0
11 *331:D *325:A 0
12 *3:10 *325:A 0
13 *3:10 *58:12 0
14 *26:37 *321:A 1.54008e-05
15 *26:52 *321:A 3.23417e-05
16 *26:52 *58:12 4.77425e-05
17 *26:52 *58:27 0.000288502
18 *30:8 *58:27 1.54008e-05
19 *30:14 *58:27 0.000288502
20 *31:14 *58:12 0.00034245
21 *35:14 *325:A 7.34141e-06
22 *45:22 *325:A 0
23 *45:31 *325:A 0
*RES
1 *359:X *58:6 40 
2 *58:6 *58:12 24.0067 
3 *58:12 *321:A 20.3193 
4 *58:12 *58:27 41.6583 
5 *58:27 *320:B1 20 
6 *58:6 *325:A 47.2435 
*END

*D_NET *59 0.000312881
*CONN
*I *322:A1 I *D sg13cmos5l_a21oi_1
*I *360:X O *D sg13cmos5l_dlygate4sd3_1
*CAP
1 *322:A1 0.000108528
2 *360:X 0.000108528
3 *322:A1 *383:A 8.03692e-05
4 *322:A2 *322:A1 1.54556e-05
*RES
1 *360:X *322:A1 41.3802 
*END

*D_NET *60 0.0106517
*CONN
*I *337:A I *D sg13cmos5l_and2_1
*I *334:A I *D sg13cmos5l_and2_1
*I *309:A I *D sg13cmos5l_inv_1
*I *328:B I *D sg13cmos5l_and2_1
*I *329:B_N I *D sg13cmos5l_nor2b_1
*I *323:B I *D sg13cmos5l_and2_1
*I *324:B_N I *D sg13cmos5l_nor2b_1
*I *339:A I *D sg13cmos5l_and2_1
*I *377:X O *D sg13cmos5l_buf_1
*CAP
1 *337:A 0.000491474
2 *334:A 0
3 *309:A 9.33073e-05
4 *328:B 2.12877e-05
5 *329:B_N 0
6 *323:B 0.000548672
7 *324:B_N 0.000116322
8 *339:A 0
9 *377:X 0.000603509
10 *60:65 0.00010122
11 *60:57 0.000586249
12 *60:38 0.001173
13 *60:27 0.00132266
14 *60:23 0.00172594
15 *60:10 0.00114402
16 *60:6 0.000669169
17 *309:A *75:10 0
18 *323:B *323:A 0.000410379
19 *323:B *342:D 0
20 *324:B_N *324:A 0
21 *328:B *67:20 4.77537e-05
22 *337:A *335:B 0
23 *337:A *337:B 8.03692e-05
24 *337:A *71:34 0
25 *337:A *71:64 0
26 *60:23 *71:26 0
27 *60:23 *75:10 0
28 *60:27 *62:32 0
29 *60:38 *324:A 0
30 *60:57 *67:20 4.77534e-05
31 *60:57 *69:8 0
32 *60:57 *82:19 0
33 *60:65 *67:20 0.00012816
34 *327:A0 *323:B 8.02059e-05
35 *327:S *324:B_N 0
36 *377:A *60:6 0
37 *17:12 *323:B 0
38 *22:12 *60:27 0
39 *26:18 *60:23 0
40 *26:18 *60:27 0
41 *26:33 *60:27 0
42 *26:59 *60:27 0
43 *26:74 *323:B 0
44 *26:74 *324:B_N 0.000144861
45 *26:74 *60:27 0
46 *27:32 *324:B_N 0.000177203
47 *27:40 *60:38 0
48 *46:27 *309:A 0.000129685
49 *46:27 *60:23 0.000403989
50 *47:12 *328:B 3.24568e-05
51 *47:12 *60:57 0.00037203
*RES
1 *377:X *60:6 20.9682 
2 *60:6 *60:10 26.7774 
3 *60:10 *339:A 40 
4 *60:10 *60:23 26.7568 
5 *60:23 *60:27 31.227 
6 *60:27 *324:B_N 41.4008 
7 *60:27 *60:38 1.8334 
8 *60:38 *323:B 45.7474 
9 *60:38 *60:57 25.5517 