*SPEF "ieee 1481-1999"
*DESIGN "heichips26_digital_project"
*DATE "15:45:37 Saturday July 18, 2026"
*VENDOR "The OpenROAD Project"
*PROGRAM "OpenROAD"
*VERSION "dcf36133a369abc8f3c5e5738cd4d82e4903c0e0"
*DESIGN_FLOW "NAME_SCOPE LOCAL" "PIN_CAP NONE"
*DIVIDER /
*DELIMITER :
*BUS_DELIMITER []
*T_UNIT 1 NS
*C_UNIT 1 PF
*R_UNIT 1 OHM
*L_UNIT 1 HENRY

*NAME_MAP
*3 clk
*4 ena
*5 rst_n
*6 ui_in[0]
*7 ui_in[1]
*8 ui_in[2]
*9 ui_in[3]
*10 ui_in[4]
*11 ui_in[5]
*12 ui_in[6]
*13 ui_in[7]
*14 uio_in[0]
*15 uio_in[1]
*16 uio_in[2]
*17 uio_in[3]
*18 uio_in[4]
*19 uio_in[5]
*20 uio_in[6]
*21 uio_in[7]
*22 net
*23 net19
*24 net20
*25 net21
*26 net22
*27 net23
*28 net24
*29 net25
*30 uio_out[0]
*31 uio_out[1]
*32 uio_out[2]
*33 uio_out[3]
*34 uio_out[4]
*35 uio_out[5]
*36 uio_out[6]
*37 uio_out[7]
*38 uo_out[0]
*39 uo_out[1]
*40 uo_out[2]
*41 uo_out[3]
*42 uo_out[4]
*43 uo_out[5]
*44 uo_out[6]
*45 uo_out[7]
*46 net1
*47 net10
*48 net11
*49 net12
*50 net13
*51 net14
*52 net15
*53 net16
*54 net17
*55 net18
*56 net2
*57 net3
*58 net4
*59 net5
*60 net6
*61 net7
*62 net8
*63 net9
*64 FILLER_0_0
*65 FILLER_0_1001
*66 FILLER_0_1008
*67 FILLER_0_1015
*68 FILLER_0_1022
*69 FILLER_0_105
*70 FILLER_0_112
*71 FILLER_0_119
*72 FILLER_0_126
*73 FILLER_0_133
*74 FILLER_0_14
*75 FILLER_0_140
*76 FILLER_0_147
*77 FILLER_0_154
*78 FILLER_0_161
*79 FILLER_0_168
*80 FILLER_0_175
*81 FILLER_0_182
*82 FILLER_0_189
*83 FILLER_0_196
*84 FILLER_0_203
*85 FILLER_0_21
*86 FILLER_0_210
*87 FILLER_0_217
*88 FILLER_0_224
*89 FILLER_0_231
*90 FILLER_0_238
*91 FILLER_0_245
*92 FILLER_0_252
*93 FILLER_0_259
*94 FILLER_0_266
*95 FILLER_0_273
*96 FILLER_0_28
*97 FILLER_0_280
*98 FILLER_0_287
*99 FILLER_0_294
*100 FILLER_0_301
*101 FILLER_0_308
*102 FILLER_0_315
*103 FILLER_0_322
*104 FILLER_0_329
*105 FILLER_0_336
*106 FILLER_0_343
*107 FILLER_0_35
*108 FILLER_0_350
*109 FILLER_0_357
*110 FILLER_0_364
*111 FILLER_0_371
*112 FILLER_0_378
*113 FILLER_0_385
*114 FILLER_0_392
*115 FILLER_0_399
*116 FILLER_0_406
*117 FILLER_0_413
*118 FILLER_0_42
*119 FILLER_0_420
*120 FILLER_0_427
*121 FILLER_0_434
*122 FILLER_0_441
*123 FILLER_0_448
*124 FILLER_0_455
*125 FILLER_0_462
*126 FILLER_0_469
*127 FILLER_0_476
*128 FILLER_0_483
*129 FILLER_0_49
*130 FILLER_0_490
*131 FILLER_0_497
*132 FILLER_0_504
*133 FILLER_0_511
*134 FILLER_0_518
*135 FILLER_0_525
*136 FILLER_0_532
*137 FILLER_0_539
*138 FILLER_0_546
*139 FILLER_0_553
*140 FILLER_0_56
*141 FILLER_0_560
*142 FILLER_0_567
*143 FILLER_0_574
*144 FILLER_0_581
*145 FILLER_0_588
*146 FILLER_0_595
*147 FILLER_0_602
*148 FILLER_0_609
*149 FILLER_0_616
*150 FILLER_0_623
*151 FILLER_0_63
*152 FILLER_0_630
*153 FILLER_0_637
*154 FILLER_0_644
*155 FILLER_0_651
*156 FILLER_0_658
*157 FILLER_0_665
*158 FILLER_0_672
*159 FILLER_0_679
*160 FILLER_0_686
*161 FILLER_0_693
*162 FILLER_0_7
*163 FILLER_0_70
*164 FILLER_0_700
*165 FILLER_0_707
*166 FILLER_0_714
*167 FILLER_0_721
*168 FILLER_0_728
*169 FILLER_0_735
*170 FILLER_0_742
*171 FILLER_0_749
*172 FILLER_0_756
*173 FILLER_0_763
*174 FILLER_0_77
*175 FILLER_0_770
*176 FILLER_0_777
*177 FILLER_0_784
*178 FILLER_0_791
*179 FILLER_0_798
*180 FILLER_0_805
*181 FILLER_0_812
*182 FILLER_0_819
*183 FILLER_0_826
*184 FILLER_0_833
*185 FILLER_0_84
*186 FILLER_0_840
*187 FILLER_0_847
*188 FILLER_0_854
*189 FILLER_0_861
*190 FILLER_0_868
*191 FILLER_0_875
*192 FILLER_0_882
*193 FILLER_0_889
*194 FILLER_0_896
*195 FILLER_0_903
*196 FILLER_0_91
*197 FILLER_0_910
*198 FILLER_0_917
*199 FILLER_0_924
*200 FILLER_0_931
*201 FILLER_0_938
*202 FILLER_0_945
*203 FILLER_0_952
*204 FILLER_0_959
*205 FILLER_0_966
*206 FILLER_0_973
*207 FILLER_0_98
*208 FILLER_0_980
*209 FILLER_0_987
*210 FILLER_0_994
*211 FILLER_10_1005
*212 FILLER_10_1012
*213 FILLER_10_1019
*214 FILLER_10_102
*215 FILLER_10_1026
*216 FILLER_10_1028
*217 FILLER_10_109
*218 FILLER_10_11
*219 FILLER_10_116
*220 FILLER_10_123
*221 FILLER_10_130
*222 FILLER_10_137
*223 FILLER_10_144
*224 FILLER_10_151
*225 FILLER_10_158
*226 FILLER_10_165
*227 FILLER_10_172
*228 FILLER_10_179
*229 FILLER_10_18
*230 FILLER_10_186
*231 FILLER_10_193
*232 FILLER_10_200
*233 FILLER_10_207
*234 FILLER_10_214
*235 FILLER_10_221
*236 FILLER_10_228
*237 FILLER_10_235
*238 FILLER_10_242
*239 FILLER_10_249
*240 FILLER_10_25
*241 FILLER_10_256
*242 FILLER_10_263
*243 FILLER_10_270
*244 FILLER_10_277
*245 FILLER_10_284
*246 FILLER_10_291
*247 FILLER_10_298
*248 FILLER_10_305
*249 FILLER_10_312
*250 FILLER_10_319
*251 FILLER_10_32
*252 FILLER_10_326
*253 FILLER_10_333
*254 FILLER_10_340
*255 FILLER_10_347
*256 FILLER_10_354
*257 FILLER_10_361
*258 FILLER_10_368
*259 FILLER_10_375
*260 FILLER_10_382
*261 FILLER_10_39
*262 FILLER_10_4
*263 FILLER_10_46
*264 FILLER_10_53
*265 FILLER_10_599
*266 FILLER_10_60
*267 FILLER_10_606
*268 FILLER_10_613
*269 FILLER_10_620
*270 FILLER_10_627
*271 FILLER_10_634
*272 FILLER_10_641
*273 FILLER_10_648
*274 FILLER_10_655
*275 FILLER_10_662
*276 FILLER_10_669
*277 FILLER_10_67
*278 FILLER_10_676
*279 FILLER_10_683
*280 FILLER_10_690
*281 FILLER_10_697
*282 FILLER_10_704
*283 FILLER_10_711
*284 FILLER_10_718
*285 FILLER_10_725
*286 FILLER_10_732
*287 FILLER_10_739
*288 FILLER_10_74
*289 FILLER_10_746
*290 FILLER_10_753
*291 FILLER_10_760
*292 FILLER_10_767
*293 FILLER_10_774
*294 FILLER_10_781
*295 FILLER_10_788
*296 FILLER_10_795
*297 FILLER_10_802
*298 FILLER_10_809
*299 FILLER_10_81
*300 FILLER_10_816
*301 FILLER_10_823
*302 FILLER_10_830
*303 FILLER_10_837
*304 FILLER_10_844
*305 FILLER_10_851
*306 FILLER_10_858
*307 FILLER_10_865
*308 FILLER_10_872
*309 FILLER_10_879
*310 FILLER_10_88
*311 FILLER_10_886
*312 FILLER_10_893
*313 FILLER_10_900
*314 FILLER_10_907
*315 FILLER_10_914
*316 FILLER_10_921
*317 FILLER_10_928
*318 FILLER_10_935
*319 FILLER_10_942
*320 FILLER_10_949
*321 FILLER_10_95
*322 FILLER_10_956
*323 FILLER_10_963
*324 FILLER_10_970
*325 FILLER_10_977
*326 FILLER_10_984
*327 FILLER_10_991
*328 FILLER_10_998
*329 FILLER_11_1005
*330 FILLER_11_1012
*331 FILLER_11_1019
*332 FILLER_11_1026
*333 FILLER_11_1028
*334 FILLER_11_104
*335 FILLER_11_111
*336 FILLER_11_118
*337 FILLER_11_125
*338 FILLER_11_13
*339 FILLER_11_132
*340 FILLER_11_139
*341 FILLER_11_146
*342 FILLER_11_153
*343 FILLER_11_160
*344 FILLER_11_167
*345 FILLER_11_174
*346 FILLER_11_181
*347 FILLER_11_188
*348 FILLER_11_195
*349 FILLER_11_20
*350 FILLER_11_202
*351 FILLER_11_209
*352 FILLER_11_216
*353 FILLER_11_223
*354 FILLER_11_230
*355 FILLER_11_237
*356 FILLER_11_244
*357 FILLER_11_251
*358 FILLER_11_258
*359 FILLER_11_265
*360 FILLER_11_27
*361 FILLER_11_272
*362 FILLER_11_279
*363 FILLER_11_286
*364 FILLER_11_293
*365 FILLER_11_300
*366 FILLER_11_307
*367 FILLER_11_314
*368 FILLER_11_321
*369 FILLER_11_328
*370 FILLER_11_335
*371 FILLER_11_34
*372 FILLER_11_342
*373 FILLER_11_349
*374 FILLER_11_356
*375 FILLER_11_363
*376 FILLER_11_370
*377 FILLER_11_377
*378 FILLER_11_384
*379 FILLER_11_388
*380 FILLER_11_4
*381 FILLER_11_41
*382 FILLER_11_48
*383 FILLER_11_55
*384 FILLER_11_599
*385 FILLER_11_606
*386 FILLER_11_613
*387 FILLER_11_62
*388 FILLER_11_620
*389 FILLER_11_627
*390 FILLER_11_634
*391 FILLER_11_641
*392 FILLER_11_648
*393 FILLER_11_655
*394 FILLER_11_662
*395 FILLER_11_669
*396 FILLER_11_676
*397 FILLER_11_683
*398 FILLER_11_69
*399 FILLER_11_690
*400 FILLER_11_697
*401 FILLER_11_704
*402 FILLER_11_711
*403 FILLER_11_718
*404 FILLER_11_725
*405 FILLER_11_732
*406 FILLER_11_739
*407 FILLER_11_746
*408 FILLER_11_753
*409 FILLER_11_76
*410 FILLER_11_760
*411 FILLER_11_767
*412 FILLER_11_774
*413 FILLER_11_781
*414 FILLER_11_788
*415 FILLER_11_795
*416 FILLER_11_8
*417 FILLER_11_802
*418 FILLER_11_809
*419 FILLER_11_816
*420 FILLER_11_823
*421 FILLER_11_83
*422 FILLER_11_830
*423 FILLER_11_837
*424 FILLER_11_844
*425 FILLER_11_851
*426 FILLER_11_858
*427 FILLER_11_865
*428 FILLER_11_872
*429 FILLER_11_879
*430 FILLER_11_886
*431 FILLER_11_893
*432 FILLER_11_90
*433 FILLER_11_900
*434 FILLER_11_907
*435 FILLER_11_914
*436 FILLER_11_921
*437 FILLER_11_928
*438 FILLER_11_935
*439 FILLER_11_942
*440 FILLER_11_949
*441 FILLER_11_956
*442 FILLER_11_963
*443 FILLER_11_97
*444 FILLER_11_970
*445 FILLER_11_977
*446 FILLER_11_984
*447 FILLER_11_991
*448 FILLER_11_998
*449 FILLER_12_1005
*450 FILLER_12_1012
*451 FILLER_12_1019
*452 FILLER_12_1026
*453 FILLER_12_1028
*454 FILLER_12_104
*455 FILLER_12_111
*456 FILLER_12_118
*457 FILLER_12_125
*458 FILLER_12_13
*459 FILLER_12_132
*460 FILLER_12_139
*461 FILLER_12_146
*462 FILLER_12_153
*463 FILLER_12_160
*464 FILLER_12_167
*465 FILLER_12_174
*466 FILLER_12_181
*467 FILLER_12_188
*468 FILLER_12_195
*469 FILLER_12_20
*470 FILLER_12_202
*471 FILLER_12_209
*472 FILLER_12_216
*473 FILLER_12_223
*474 FILLER_12_230
*475 FILLER_12_237
*476 FILLER_12_244
*477 FILLER_12_251
*478 FILLER_12_258
*479 FILLER_12_265
*480 FILLER_12_27
*481 FILLER_12_272
*482 FILLER_12_279
*483 FILLER_12_286
*484 FILLER_12_293
*485 FILLER_12_300
*486 FILLER_12_307
*487 FILLER_12_314
*488 FILLER_12_321
*489 FILLER_12_328
*490 FILLER_12_335
*491 FILLER_12_34
*492 FILLER_12_342
*493 FILLER_12_349
*494 FILLER_12_356
*495 FILLER_12_363
*496 FILLER_12_370
*497 FILLER_12_377
*498 FILLER_12_384
*499 FILLER_12_388
*500 FILLER_12_4
*501 FILLER_12_41
*502 FILLER_12_48
*503 FILLER_12_55
*504 FILLER_12_599
*505 FILLER_12_606
*506 FILLER_12_613
*507 FILLER_12_62
*508 FILLER_12_620
*509 FILLER_12_627
*510 FILLER_12_634
*511 FILLER_12_641
*512 FILLER_12_648
*513 FILLER_12_655
*514 FILLER_12_662
*515 FILLER_12_669
*516 FILLER_12_676
*517 FILLER_12_683
*518 FILLER_12_69
*519 FILLER_12_690
*520 FILLER_12_697
*521 FILLER_12_704
*522 FILLER_12_711
*523 FILLER_12_718
*524 FILLER_12_725
*525 FILLER_12_732
*526 FILLER_12_739
*527 FILLER_12_746
*528 FILLER_12_753
*529 FILLER_12_76
*530 FILLER_12_760
*531 FILLER_12_767
*532 FILLER_12_774
*533 FILLER_12_781
*534 FILLER_12_788
*535 FILLER_12_795
*536 FILLER_12_8
*537 FILLER_12_802
*538 FILLER_12_809
*539 FILLER_12_816
*540 FILLER_12_823
*541 FILLER_12_83
*542 FILLER_12_830
*543 FILLER_12_837
*544 FILLER_12_844
*545 FILLER_12_851
*546 FILLER_12_858
*547 FILLER_12_865
*548 FILLER_12_872
*549 FILLER_12_879
*550 FILLER_12_886
*551 FILLER_12_893
*552 FILLER_12_90
*553 FILLER_12_900
*554 FILLER_12_907
*555 FILLER_12_914
*556 FILLER_12_921
*557 FILLER_12_928
*558 FILLER_12_935
*559 FILLER_12_942
*560 FILLER_12_949
*561 FILLER_12_956
*562 FILLER_12_963
*563 FILLER_12_97
*564 FILLER_12_970
*565 FILLER_12_977
*566 FILLER_12_984
*567 FILLER_12_991
*568 FILLER_12_998
*569 FILLER_13_1005
*570 FILLER_13_1012
*571 FILLER_13_1019
*572 FILLER_13_102
*573 FILLER_13_1026
*574 FILLER_13_1028
*575 FILLER_13_109
*576 FILLER_13_11
*577 FILLER_13_116
*578 FILLER_13_123
*579 FILLER_13_13
*580 FILLER_13_130
*581 FILLER_13_137
*582 FILLER_13_144
*583 FILLER_13_151
*584 FILLER_13_158
*585 FILLER_13_165
*586 FILLER_13_172
*587 FILLER_13_179
*588 FILLER_13_18
*589 FILLER_13_186
*590 FILLER_13_193
*591 FILLER_13_200
*592 FILLER_13_207
*593 FILLER_13_214
*594 FILLER_13_221
*595 FILLER_13_228
*596 FILLER_13_235
*597 FILLER_13_242
*598 FILLER_13_249
*599 FILLER_13_25
*600 FILLER_13_256
*601 FILLER_13_263
*602 FILLER_13_270
*603 FILLER_13_277
*604 FILLER_13_284
*605 FILLER_13_291
*606 FILLER_13_298
*607 FILLER_13_305
*608 FILLER_13_312
*609 FILLER_13_319
*610 FILLER_13_32
*611 FILLER_13_326
*612 FILLER_13_333
*613 FILLER_13_340
*614 FILLER_13_347
*615 FILLER_13_354
*616 FILLER_13_361
*617 FILLER_13_368
*618 FILLER_13_375
*619 FILLER_13_382
*620 FILLER_13_39
*621 FILLER_13_4
*622 FILLER_13_46
*623 FILLER_13_53
*624 FILLER_13_599
*625 FILLER_13_60
*626 FILLER_13_606
*627 FILLER_13_613
*628 FILLER_13_620
*629 FILLER_13_627
*630 FILLER_13_634
*631 FILLER_13_641
*632 FILLER_13_648
*633 FILLER_13_655
*634 FILLER_13_662
*635 FILLER_13_669
*636 FILLER_13_67
*637 FILLER_13_676
*638 FILLER_13_683
*639 FILLER_13_690
*640 FILLER_13_697
*641 FILLER_13_704
*642 FILLER_13_711
*643 FILLER_13_718
*644 FILLER_13_725
*645 FILLER_13_732
*646 FILLER_13_739
*647 FILLER_13_74
*648 FILLER_13_746
*649 FILLER_13_753
*650 FILLER_13_760
*651 FILLER_13_767
*652 FILLER_13_774
*653 FILLER_13_781
*654 FILLER_13_788
*655 FILLER_13_795
*656 FILLER_13_802
*657 FILLER_13_809
*658 FILLER_13_81
*659 FILLER_13_816
*660 FILLER_13_823
*661 FILLER_13_830
*662 FILLER_13_837
*663 FILLER_13_844
*664 FILLER_13_851
*665 FILLER_13_858
*666 FILLER_13_865
*667 FILLER_13_872
*668 FILLER_13_879
*669 FILLER_13_88
*670 FILLER_13_886
*671 FILLER_13_893
*672 FILLER_13_900
*673 FILLER_13_907
*674 FILLER_13_914
*675 FILLER_13_921
*676 FILLER_13_928
*677 FILLER_13_935
*678 FILLER_13_942
*679 FILLER_13_949
*680 FILLER_13_95
*681 FILLER_13_956
*682 FILLER_13_963
*683 FILLER_13_970
*684 FILLER_13_977
*685 FILLER_13_984
*686 FILLER_13_991
*687 FILLER_13_998
*688 FILLER_14_1005
*689 FILLER_14_1012
*690 FILLER_14_1019
*691 FILLER_14_1026
*692 FILLER_14_1028
*693 FILLER_14_105
*694 FILLER_14_11
*695 FILLER_14_112
*696 FILLER_14_119
*697 FILLER_14_126
*698 FILLER_14_133
*699 FILLER_14_140
*700 FILLER_14_147
*701 FILLER_14_154
*702 FILLER_14_161
*703 FILLER_14_168
*704 FILLER_14_175
*705 FILLER_14_18
*706 FILLER_14_182
*707 FILLER_14_189
*708 FILLER_14_196
*709 FILLER_14_203
*710 FILLER_14_210
*711 FILLER_14_217
*712 FILLER_14_224
*713 FILLER_14_231
*714 FILLER_14_238
*715 FILLER_14_245
*716 FILLER_14_25
*717 FILLER_14_252
*718 FILLER_14_259
*719 FILLER_14_266
*720 FILLER_14_273
*721 FILLER_14_280
*722 FILLER_14_287
*723 FILLER_14_294
*724 FILLER_14_301
*725 FILLER_14_308
*726 FILLER_14_315
*727 FILLER_14_32
*728 FILLER_14_322
*729 FILLER_14_329
*730 FILLER_14_336
*731 FILLER_14_343
*732 FILLER_14_350
*733 FILLER_14_357
*734 FILLER_14_364
*735 FILLER_14_371
*736 FILLER_14_378
*737 FILLER_14_385
*738 FILLER_14_39
*739 FILLER_14_4
*740 FILLER_14_46
*741 FILLER_14_53
*742 FILLER_14_599
*743 FILLER_14_60
*744 FILLER_14_606
*745 FILLER_14_613
*746 FILLER_14_620
*747 FILLER_14_627
*748 FILLER_14_634
*749 FILLER_14_641
*750 FILLER_14_648
*751 FILLER_14_655
*752 FILLER_14_662
*753 FILLER_14_669
*754 FILLER_14_67
*755 FILLER_14_676
*756 FILLER_14_683
*757 FILLER_14_690
*758 FILLER_14_697
*759 FILLER_14_704
*760 FILLER_14_71
*761 FILLER_14_711
*762 FILLER_14_718
*763 FILLER_14_725
*764 FILLER_14_732
*765 FILLER_14_739
*766 FILLER_14_746
*767 FILLER_14_753
*768 FILLER_14_760
*769 FILLER_14_767
*770 FILLER_14_77
*771 FILLER_14_774
*772 FILLER_14_781
*773 FILLER_14_788
*774 FILLER_14_795
*775 FILLER_14_802
*776 FILLER_14_809
*777 FILLER_14_816
*778 FILLER_14_823
*779 FILLER_14_830
*780 FILLER_14_837
*781 FILLER_14_84
*782 FILLER_14_844
*783 FILLER_14_851
*784 FILLER_14_858
*785 FILLER_14_865
*786 FILLER_14_872
*787 FILLER_14_879
*788 FILLER_14_886
*789 FILLER_14_893
*790 FILLER_14_900
*791 FILLER_14_907
*792 FILLER_14_91
*793 FILLER_14_914
*794 FILLER_14_921
*795 FILLER_14_928
*796 FILLER_14_935
*797 FILLER_14_942
*798 FILLER_14_949
*799 FILLER_14_956
*800 FILLER_14_963
*801 FILLER_14_970
*802 FILLER_14_977
*803 FILLER_14_98
*804 FILLER_14_984
*805 FILLER_14_991
*806 FILLER_14_998
*807 FILLER_15_1005
*808 FILLER_15_1012
*809 FILLER_15_1019
*810 FILLER_15_1026
*811 FILLER_15_1028
*812 FILLER_15_105
*813 FILLER_15_11
*814 FILLER_15_112
*815 FILLER_15_119
*816 FILLER_15_126
*817 FILLER_15_133
*818 FILLER_15_140
*819 FILLER_15_147
*820 FILLER_15_154
*821 FILLER_15_161
*822 FILLER_15_168
*823 FILLER_15_175
*824 FILLER_15_18
*825 FILLER_15_182
*826 FILLER_15_189
*827 FILLER_15_196
*828 FILLER_15_203
*829 FILLER_15_210
*830 FILLER_15_217
*831 FILLER_15_224
*832 FILLER_15_231
*833 FILLER_15_238
*834 FILLER_15_245
*835 FILLER_15_25
*836 FILLER_15_252
*837 FILLER_15_259
*838 FILLER_15_266
*839 FILLER_15_273
*840 FILLER_15_280
*841 FILLER_15_287
*842 FILLER_15_294
*843 FILLER_15_301
*844 FILLER_15_308
*845 FILLER_15_315
*846 FILLER_15_32
*847 FILLER_15_322
*848 FILLER_15_329
*849 FILLER_15_336
*850 FILLER_15_343
*851 FILLER_15_350
*852 FILLER_15_357
*853 FILLER_15_364
*854 FILLER_15_371
*855 FILLER_15_378
*856 FILLER_15_385
*857 FILLER_15_39
*858 FILLER_15_4
*859 FILLER_15_46
*860 FILLER_15_53
*861 FILLER_15_599
*862 FILLER_15_60
*863 FILLER_15_606
*864 FILLER_15_613
*865 FILLER_15_620
*866 FILLER_15_627
*867 FILLER_15_634
*868 FILLER_15_641
*869 FILLER_15_648
*870 FILLER_15_655
*871 FILLER_15_662
*872 FILLER_15_669
*873 FILLER_15_67
*874 FILLER_15_676
*875 FILLER_15_683
*876 FILLER_15_690
*877 FILLER_15_697
*878 FILLER_15_704
*879 FILLER_15_71
*880 FILLER_15_711
*881 FILLER_15_718
*882 FILLER_15_725
*883 FILLER_15_732
*884 FILLER_15_739
*885 FILLER_15_746
*886 FILLER_15_753
*887 FILLER_15_760
*888 FILLER_15_767
*889 FILLER_15_77
*890 FILLER_15_774
*891 FILLER_15_781
*892 FILLER_15_788
*893 FILLER_15_795
*894 FILLER_15_802
*895 FILLER_15_809
*896 FILLER_15_816
*897 FILLER_15_823
*898 FILLER_15_830
*899 FILLER_15_837
*900 FILLER_15_84
*901 FILLER_15_844
*902 FILLER_15_851
*903 FILLER_15_858
*904 FILLER_15_865
*905 FILLER_15_872
*906 FILLER_15_879
*907 FILLER_15_886
*908 FILLER_15_893
*909 FILLER_15_900
*910 FILLER_15_907
*911 FILLER_15_91
*912 FILLER_15_914
*913 FILLER_15_921
*914 FILLER_15_928
*915 FILLER_15_935
*916 FILLER_15_942
*917 FILLER_15_949
*918 FILLER_15_956
*919 FILLER_15_963
*920 FILLER_15_970
*921 FILLER_15_977
*922 FILLER_15_98
*923 FILLER_15_984
*924 FILLER_15_991
*925 FILLER_15_998
*926 FILLER_16_1005
*927 FILLER_16_1012
*928 FILLER_16_1019
*929 FILLER_16_102
*930 FILLER_16_1026
*931 FILLER_16_1028
*932 FILLER_16_109
*933 FILLER_16_11
*934 FILLER_16_116
*935 FILLER_16_123
*936 FILLER_16_13
*937 FILLER_16_130
*938 FILLER_16_137
*939 FILLER_16_144
*940 FILLER_16_151
*941 FILLER_16_158
*942 FILLER_16_165
*943 FILLER_16_172
*944 FILLER_16_179
*945 FILLER_16_18
*946 FILLER_16_186
*947 FILLER_16_193
*948 FILLER_16_200
*949 FILLER_16_207
*950 FILLER_16_214
*951 FILLER_16_221
*952 FILLER_16_228
*953 FILLER_16_235
*954 FILLER_16_242
*955 FILLER_16_249
*956 FILLER_16_25
*957 FILLER_16_256
*958 FILLER_16_263
*959 FILLER_16_270
*960 FILLER_16_277
*961 FILLER_16_284
*962 FILLER_16_291
*963 FILLER_16_298
*964 FILLER_16_305
*965 FILLER_16_312
*966 FILLER_16_319
*967 FILLER_16_32
*968 FILLER_16_326
*969 FILLER_16_333
*970 FILLER_16_340
*971 FILLER_16_347
*972 FILLER_16_354
*973 FILLER_16_361
*974 FILLER_16_368
*975 FILLER_16_375
*976 FILLER_16_382
*977 FILLER_16_39
*978 FILLER_16_4
*979 FILLER_16_46
*980 FILLER_16_53
*981 FILLER_16_599
*982 FILLER_16_60
*983 FILLER_16_606
*984 FILLER_16_613
*985 FILLER_16_620
*986 FILLER_16_627
*987 FILLER_16_634
*988 FILLER_16_641
*989 FILLER_16_648
*990 FILLER_16_655
*991 FILLER_16_662
*992 FILLER_16_669
*993 FILLER_16_67
*994 FILLER_16_676
*995 FILLER_16_683
*996 FILLER_16_690
*997 FILLER_16_697
*998 FILLER_16_704
*999 FILLER_16_711
*1000 FILLER_16_718
*1001 FILLER_16_725
*1002 FILLER_16_732
*1003 FILLER_16_739
*1004 FILLER_16_74
*1005 FILLER_16_746
*1006 FILLER_16_753
*1007 FILLER_16_760
*1008 FILLER_16_767
*1009 FILLER_16_774
*1010 FILLER_16_781
*1011 FILLER_16_788
*1012 FILLER_16_795
*1013 FILLER_16_802
*1014 FILLER_16_809
*1015 FILLER_16_81
*1016 FILLER_16_816
*1017 FILLER_16_823
*1018 FILLER_16_830
*1019 FILLER_16_837
*1020 FILLER_16_844
*1021 FILLER_16_851
*1022 FILLER_16_858
*1023 FILLER_16_865
*1024 FILLER_16_872
*1025 FILLER_16_879
*1026 FILLER_16_88
*1027 FILLER_16_886
*1028 FILLER_16_893
*1029 FILLER_16_900
*1030 FILLER_16_907
*1031 FILLER_16_914
*1032 FILLER_16_921
*1033 FILLER_16_928
*1034 FILLER_16_935
*1035 FILLER_16_942
*1036 FILLER_16_949
*1037 FILLER_16_95
*1038 FILLER_16_956
*1039 FILLER_16_963
*1040 FILLER_16_970
*1041 FILLER_16_977
*1042 FILLER_16_984
*1043 FILLER_16_991
*1044 FILLER_16_998
*1045 FILLER_17_0
*1046 FILLER_17_1005
*1047 FILLER_17_1012
*1048 FILLER_17_1019
*1049 FILLER_17_1026
*1050 FILLER_17_1028
*1051 FILLER_17_104
*1052 FILLER_17_111
*1053 FILLER_17_118
*1054 FILLER_17_125
*1055 FILLER_17_13
*1056 FILLER_17_132
*1057 FILLER_17_139
*1058 FILLER_17_146
*1059 FILLER_17_153
*1060 FILLER_17_160
*1061 FILLER_17_167
*1062 FILLER_17_174
*1063 FILLER_17_181
*1064 FILLER_17_188
*1065 FILLER_17_195
*1066 FILLER_17_20
*1067 FILLER_17_202
*1068 FILLER_17_209
*1069 FILLER_17_216
*1070 FILLER_17_223
*1071 FILLER_17_230
*1072 FILLER_17_237
*1073 FILLER_17_244
*1074 FILLER_17_251
*1075 FILLER_17_258
*1076 FILLER_17_265
*1077 FILLER_17_27
*1078 FILLER_17_272
*1079 FILLER_17_279
*1080 FILLER_17_286
*1081 FILLER_17_293
*1082 FILLER_17_300
*1083 FILLER_17_307
*1084 FILLER_17_314
*1085 FILLER_17_321
*1086 FILLER_17_328
*1087 FILLER_17_335
*1088 FILLER_17_34
*1089 FILLER_17_342
*1090 FILLER_17_349
*1091 FILLER_17_356
*1092 FILLER_17_363
*1093 FILLER_17_370
*1094 FILLER_17_377
*1095 FILLER_17_384
*1096 FILLER_17_388
*1097 FILLER_17_41
*1098 FILLER_17_48
*1099 FILLER_17_55
*1100 FILLER_17_599
*1101 FILLER_17_606
*1102 FILLER_17_613
*1103 FILLER_17_62
*1104 FILLER_17_620
*1105 FILLER_17_627
*1106 FILLER_17_634
*1107 FILLER_17_641
*1108 FILLER_17_648
*1109 FILLER_17_655
*1110 FILLER_17_662
*1111 FILLER_17_669
*1112 FILLER_17_676
*1113 FILLER_17_683
*1114 FILLER_17_69
*1115 FILLER_17_690
*1116 FILLER_17_697
*1117 FILLER_17_7
*1118 FILLER_17_704
*1119 FILLER_17_711
*1120 FILLER_17_718
*1121 FILLER_17_725
*1122 FILLER_17_732
*1123 FILLER_17_739
*1124 FILLER_17_746
*1125 FILLER_17_753
*1126 FILLER_17_76
*1127 FILLER_17_760
*1128 FILLER_17_767
*1129 FILLER_17_774
*1130 FILLER_17_781
*1131 FILLER_17_788
*1132 FILLER_17_795
*1133 FILLER_17_802
*1134 FILLER_17_809
*1135 FILLER_17_816
*1136 FILLER_17_823
*1137 FILLER_17_83
*1138 FILLER_17_830
*1139 FILLER_17_837
*1140 FILLER_17_844
*1141 FILLER_17_851
*1142 FILLER_17_858
*1143 FILLER_17_865
*1144 FILLER_17_872
*1145 FILLER_17_879
*1146 FILLER_17_886
*1147 FILLER_17_893
*1148 FILLER_17_90
*1149 FILLER_17_900
*1150 FILLER_17_907
*1151 FILLER_17_914
*1152 FILLER_17_921
*1153 FILLER_17_928
*1154 FILLER_17_935
*1155 FILLER_17_942
*1156 FILLER_17_949
*1157 FILLER_17_956
*1158 FILLER_17_963
*1159 FILLER_17_97
*1160 FILLER_17_970
*1161 FILLER_17_977
*1162 FILLER_17_984
*1163 FILLER_17_991
*1164 FILLER_17_998
*1165 FILLER_18_1005
*1166 FILLER_18_1012
*1167 FILLER_18_1019
*1168 FILLER_18_102
*1169 FILLER_18_1026
*1170 FILLER_18_1028
*1171 FILLER_18_109
*1172 FILLER_18_11
*1173 FILLER_18_116
*1174 FILLER_18_123
*1175 FILLER_18_130
*1176 FILLER_18_137
*1177 FILLER_18_144
*1178 FILLER_18_151
*1179 FILLER_18_158
*1180 FILLER_18_165
*1181 FILLER_18_172
*1182 FILLER_18_179
*1183 FILLER_18_18
*1184 FILLER_18_186
*1185 FILLER_18_193
*1186 FILLER_18_200
*1187 FILLER_18_207
*1188 FILLER_18_214
*1189 FILLER_18_221
*1190 FILLER_18_228
*1191 FILLER_18_235
*1192 FILLER_18_242
*1193 FILLER_18_249
*1194 FILLER_18_25
*1195 FILLER_18_256
*1196 FILLER_18_263
*1197 FILLER_18_270
*1198 FILLER_18_277
*1199 FILLER_18_284
*1200 FILLER_18_291
*1201 FILLER_18_298
*1202 FILLER_18_305
*1203 FILLER_18_312
*1204 FILLER_18_319
*1205 FILLER_18_32
*1206 FILLER_18_326
*1207 FILLER_18_333
*1208 FILLER_18_340
*1209 FILLER_18_347
*1210 FILLER_18_354
*1211 FILLER_18_361
*1212 FILLER_18_368
*1213 FILLER_18_375
*1214 FILLER_18_382
*1215 FILLER_18_39
*1216 FILLER_18_4
*1217 FILLER_18_46
*1218 FILLER_18_53
*1219 FILLER_18_599
*1220 FILLER_18_60
*1221 FILLER_18_606
*1222 FILLER_18_613
*1223 FILLER_18_620
*1224 FILLER_18_627
*1225 FILLER_18_634
*1226 FILLER_18_641
*1227 FILLER_18_648
*1228 FILLER_18_655
*1229 FILLER_18_662
*1230 FILLER_18_669
*1231 FILLER_18_67
*1232 FILLER_18_676
*1233 FILLER_18_683
*1234 FILLER_18_690
*1235 FILLER_18_697
*1236 FILLER_18_704
*1237 FILLER_18_711
*1238 FILLER_18_718
*1239 FILLER_18_725
*1240 FILLER_18_732
*1241 FILLER_18_739
*1242 FILLER_18_74
*1243 FILLER_18_746
*1244 FILLER_18_753
*1245 FILLER_18_760
*1246 FILLER_18_767
*1247 FILLER_18_774
*1248 FILLER_18_781
*1249 FILLER_18_788
*1250 FILLER_18_795
*1251 FILLER_18_802
*1252 FILLER_18_809
*1253 FILLER_18_81
*1254 FILLER_18_816
*1255 FILLER_18_823
*1256 FILLER_18_830
*1257 FILLER_18_837
*1258 FILLER_18_844
*1259 FILLER_18_851
*1260 FILLER_18_858
*1261 FILLER_18_865
*1262 FILLER_18_872
*1263 FILLER_18_879
*1264 FILLER_18_88
*1265 FILLER_18_886
*1266 FILLER_18_893
*1267 FILLER_18_900
*1268 FILLER_18_907
*1269 FILLER_18_914
*1270 FILLER_18_921
*1271 FILLER_18_928
*1272 FILLER_18_935
*1273 FILLER_18_942
*1274 FILLER_18_949
*1275 FILLER_18_95
*1276 FILLER_18_956
*1277 FILLER_18_963
*1278 FILLER_18_970
*1279 FILLER_18_977
*1280 FILLER_18_984
*1281 FILLER_18_991
*1282 FILLER_18_998
*1283 FILLER_19_1005
*1284 FILLER_19_1012
*1285 FILLER_19_1019
*1286 FILLER_19_102
*1287 FILLER_19_1026
*1288 FILLER_19_1028
*1289 FILLER_19_109
*1290 FILLER_19_11
*1291 FILLER_19_116
*1292 FILLER_19_123
*1293 FILLER_19_130
*1294 FILLER_19_137
*1295 FILLER_19_144
*1296 FILLER_19_151
*1297 FILLER_19_158
*1298 FILLER_19_165
*1299 FILLER_19_172
*1300 FILLER_19_179
*1301 FILLER_19_18
*1302 FILLER_19_186
*1303 FILLER_19_193
*1304 FILLER_19_200
*1305 FILLER_19_207
*1306 FILLER_19_214
*1307 FILLER_19_221
*1308 FILLER_19_228
*1309 FILLER_19_235
*1310 FILLER_19_242
*1311 FILLER_19_249
*1312 FILLER_19_25
*1313 FILLER_19_256
*1314 FILLER_19_263
*1315 FILLER_19_270
*1316 FILLER_19_277
*1317 FILLER_19_284
*1318 FILLER_19_291
*1319 FILLER_19_298
*1320 FILLER_19_305
*1321 FILLER_19_312
*1322 FILLER_19_319
*1323 FILLER_19_32
*1324 FILLER_19_326
*1325 FILLER_19_333
*1326 FILLER_19_340
*1327 FILLER_19_347
*1328 FILLER_19_354
*1329 FILLER_19_361
*1330 FILLER_19_368
*1331 FILLER_19_375
*1332 FILLER_19_382
*1333 FILLER_19_39
*1334 FILLER_19_4
*1335 FILLER_19_46
*1336 FILLER_19_53
*1337 FILLER_19_599
*1338 FILLER_19_60
*1339 FILLER_19_606
*1340 FILLER_19_613
*1341 FILLER_19_620
*1342 FILLER_19_627
*1343 FILLER_19_634
*1344 FILLER_19_641
*1345 FILLER_19_648
*1346 FILLER_19_655
*1347 FILLER_19_662
*1348 FILLER_19_669
*1349 FILLER_19_67
*1350 FILLER_19_676
*1351 FILLER_19_683
*1352 FILLER_19_690
*1353 FILLER_19_697
*1354 FILLER_19_704
*1355 FILLER_19_711
*1356 FILLER_19_718
*1357 FILLER_19_725
*1358 FILLER_19_732
*1359 FILLER_19_739
*1360 FILLER_19_74
*1361 FILLER_19_746
*1362 FILLER_19_753
*1363 FILLER_19_760
*1364 FILLER_19_767
*1365 FILLER_19_774
*1366 FILLER_19_781
*1367 FILLER_19_788
*1368 FILLER_19_795
*1369 FILLER_19_802
*1370 FILLER_19_809
*1371 FILLER_19_81
*1372 FILLER_19_816
*1373 FILLER_19_823
*1374 FILLER_19_830
*1375 FILLER_19_837
*1376 FILLER_19_844
*1377 FILLER_19_851
*1378 FILLER_19_858
*1379 FILLER_19_865
*1380 FILLER_19_872
*1381 FILLER_19_879
*1382 FILLER_19_88
*1383 FILLER_19_886
*1384 FILLER_19_893
*1385 FILLER_19_900
*1386 FILLER_19_907
*1387 FILLER_19_914
*1388 FILLER_19_921
*1389 FILLER_19_928
*1390 FILLER_19_935
*1391 FILLER_19_942
*1392 FILLER_19_949
*1393 FILLER_19_95
*1394 FILLER_19_956
*1395 FILLER_19_963
*1396 FILLER_19_970
*1397 FILLER_19_977
*1398 FILLER_19_984
*1399 FILLER_19_991
*1400 FILLER_19_998
*1401 FILLER_1_0
*1402 FILLER_1_1001
*1403 FILLER_1_1008
*1404 FILLER_1_1015
*1405 FILLER_1_1022
*1406 FILLER_1_105
*1407 FILLER_1_112
*1408 FILLER_1_119
*1409 FILLER_1_126
*1410 FILLER_1_133
*1411 FILLER_1_14
*1412 FILLER_1_140
*1413 FILLER_1_147
*1414 FILLER_1_154
*1415 FILLER_1_161
*1416 FILLER_1_168
*1417 FILLER_1_175
*1418 FILLER_1_182
*1419 FILLER_1_189
*1420 FILLER_1_196
*1421 FILLER_1_203
*1422 FILLER_1_21
*1423 FILLER_1_210
*1424 FILLER_1_217
*1425 FILLER_1_224
*1426 FILLER_1_231
*1427 FILLER_1_238
*1428 FILLER_1_245
*1429 FILLER_1_252
*1430 FILLER_1_259
*1431 FILLER_1_266
*1432 FILLER_1_273
*1433 FILLER_1_28
*1434 FILLER_1_280
*1435 FILLER_1_287
*1436 FILLER_1_294
*1437 FILLER_1_301
*1438 FILLER_1_308
*1439 FILLER_1_315
*1440 FILLER_1_322
*1441 FILLER_1_329
*1442 FILLER_1_336
*1443 FILLER_1_343
*1444 FILLER_1_35
*1445 FILLER_1_350
*1446 FILLER_1_357
*1447 FILLER_1_364
*1448 FILLER_1_371
*1449 FILLER_1_378
*1450 FILLER_1_385
*1451 FILLER_1_392
*1452 FILLER_1_399
*1453 FILLER_1_406
*1454 FILLER_1_413
*1455 FILLER_1_42
*1456 FILLER_1_420
*1457 FILLER_1_427
*1458 FILLER_1_434
*1459 FILLER_1_441
*1460 FILLER_1_448
*1461 FILLER_1_455
*1462 FILLER_1_462
*1463 FILLER_1_469
*1464 FILLER_1_476
*1465 FILLER_1_483
*1466 FILLER_1_49
*1467 FILLER_1_490
*1468 FILLER_1_497
*1469 FILLER_1_504
*1470 FILLER_1_511
*1471 FILLER_1_518
*1472 FILLER_1_525
*1473 FILLER_1_532
*1474 FILLER_1_539
*1475 FILLER_1_546
*1476 FILLER_1_553
*1477 FILLER_1_56
*1478 FILLER_1_560
*1479 FILLER_1_567
*1480 FILLER_1_574
*1481 FILLER_1_581
*1482 FILLER_1_588
*1483 FILLER_1_595
*1484 FILLER_1_602
*1485 FILLER_1_609
*1486 FILLER_1_616
*1487 FILLER_1_623
*1488 FILLER_1_63
*1489 FILLER_1_630
*1490 FILLER_1_637
*1491 FILLER_1_644
*1492 FILLER_1_651
*1493 FILLER_1_658
*1494 FILLER_1_665
*1495 FILLER_1_672
*1496 FILLER_1_679
*1497 FILLER_1_686
*1498 FILLER_1_693
*1499 FILLER_1_7
*1500 FILLER_1_70
*1501 FILLER_1_700
*1502 FILLER_1_707
*1503 FILLER_1_714
*1504 FILLER_1_721
*1505 FILLER_1_728
*1506 FILLER_1_735
*1507 FILLER_1_742
*1508 FILLER_1_749
*1509 FILLER_1_756
*1510 FILLER_1_763
*1511 FILLER_1_77
*1512 FILLER_1_770
*1513 FILLER_1_777
*1514 FILLER_1_784
*1515 FILLER_1_791
*1516 FILLER_1_798
*1517 FILLER_1_805
*1518 FILLER_1_812
*1519 FILLER_1_819
*1520 FILLER_1_826
*1521 FILLER_1_833
*1522 FILLER_1_84
*1523 FILLER_1_840
*1524 FILLER_1_847
*1525 FILLER_1_854
*1526 FILLER_1_861
*1527 FILLER_1_868
*1528 FILLER_1_875
*1529 FILLER_1_882
*1530 FILLER_1_889
*1531 FILLER_1_896
*1532 FILLER_1_903
*1533 FILLER_1_91
*1534 FILLER_1_910
*1535 FILLER_1_917
*1536 FILLER_1_924
*1537 FILLER_1_931
*1538 FILLER_1_938
*1539 FILLER_1_945
*1540 FILLER_1_952
*1541 FILLER_1_959
*1542 FILLER_1_966
*1543 FILLER_1_973
*1544 FILLER_1_98
*1545 FILLER_1_980
*1546 FILLER_1_987
*1547 FILLER_1_994
*1548 FILLER_20_1005
*1549 FILLER_20_1012
*1550 FILLER_20_1019
*1551 FILLER_20_102
*1552 FILLER_20_1026
*1553 FILLER_20_1028
*1554 FILLER_20_109
*1555 FILLER_20_11
*1556 FILLER_20_116
*1557 FILLER_20_123
*1558 FILLER_20_130
*1559 FILLER_20_137
*1560 FILLER_20_144
*1561 FILLER_20_151
*1562 FILLER_20_158
*1563 FILLER_20_165
*1564 FILLER_20_172
*1565 FILLER_20_179
*1566 FILLER_20_18
*1567 FILLER_20_186
*1568 FILLER_20_193
*1569 FILLER_20_200
*1570 FILLER_20_207
*1571 FILLER_20_214
*1572 FILLER_20_221
*1573 FILLER_20_228
*1574 FILLER_20_235
*1575 FILLER_20_242
*1576 FILLER_20_249
*1577 FILLER_20_25
*1578 FILLER_20_256
*1579 FILLER_20_263