*SPEF "ieee 1481-1999"
*DESIGN "heichips26_digital_project"
*DATE "16:16:28 Tuesday July 21, 2026"
*VENDOR "The OpenROAD Project"
*PROGRAM "OpenROAD"
*VERSION "dcf36133a369abc8f3c5e5738cd4d82e4903c0e0"
*DESIGN_FLOW "NAME_SCOPE LOCAL" "PIN_CAP NONE"
*DIVIDER /
*DELIMITER :
*BUS_DELIMITER []
*T_UNIT 1 NS
*C_UNIT 1 PF
*R_UNIT 1 OHM
*L_UNIT 1 HENRY

*NAME_MAP
*3 clk
*4 ena
*5 rst_n
*6 ui_in[0]
*7 ui_in[1]
*8 ui_in[2]
*9 ui_in[3]
*10 ui_in[4]
*11 ui_in[5]
*12 ui_in[6]
*13 ui_in[7]
*14 uio_in[0]
*15 uio_in[1]
*16 uio_in[2]
*17 uio_in[3]
*18 uio_in[4]
*19 uio_in[5]
*20 uio_in[6]
*21 uio_in[7]
*22 net
*23 net19
*24 net20
*25 net21
*26 net22
*27 net23
*28 net24
*29 net25
*30 uio_out[0]
*31 uio_out[1]
*32 uio_out[2]
*33 uio_out[3]
*34 uio_out[4]
*35 uio_out[5]
*36 uio_out[6]
*37 uio_out[7]
*38 uo_out[0]
*39 uo_out[1]
*40 uo_out[2]
*41 uo_out[3]
*42 uo_out[4]
*43 uo_out[5]
*44 uo_out[6]
*45 uo_out[7]
*46 net1
*47 net10
*48 net11
*49 net12
*50 net13
*51 net14
*52 net15
*53 net16
*54 net17
*55 net18
*56 net2
*57 net3
*58 net4
*59 net5
*60 net6
*61 net7
*62 net8
*63 net9
*64 ANTENNA_1
*65 ANTENNA_2
*66 FILLER_0_0
*67 FILLER_0_1001
*68 FILLER_0_1008
*69 FILLER_0_1015
*70 FILLER_0_1022
*71 FILLER_0_105
*72 FILLER_0_112
*73 FILLER_0_119
*74 FILLER_0_126
*75 FILLER_0_133
*76 FILLER_0_14
*77 FILLER_0_140
*78 FILLER_0_147
*79 FILLER_0_154
*80 FILLER_0_161
*81 FILLER_0_168
*82 FILLER_0_175
*83 FILLER_0_182
*84 FILLER_0_189
*85 FILLER_0_196
*86 FILLER_0_203
*87 FILLER_0_21
*88 FILLER_0_210
*89 FILLER_0_217
*90 FILLER_0_224
*91 FILLER_0_231
*92 FILLER_0_238
*93 FILLER_0_245
*94 FILLER_0_252
*95 FILLER_0_259
*96 FILLER_0_266
*97 FILLER_0_273
*98 FILLER_0_28
*99 FILLER_0_280
*100 FILLER_0_287
*101 FILLER_0_294
*102 FILLER_0_301
*103 FILLER_0_308
*104 FILLER_0_315
*105 FILLER_0_322
*106 FILLER_0_329
*107 FILLER_0_336
*108 FILLER_0_343
*109 FILLER_0_35
*110 FILLER_0_350
*111 FILLER_0_357
*112 FILLER_0_364
*113 FILLER_0_371
*114 FILLER_0_378
*115 FILLER_0_385
*116 FILLER_0_392
*117 FILLER_0_399
*118 FILLER_0_406
*119 FILLER_0_413
*120 FILLER_0_42
*121 FILLER_0_420
*122 FILLER_0_427
*123 FILLER_0_434
*124 FILLER_0_441
*125 FILLER_0_448
*126 FILLER_0_455
*127 FILLER_0_462
*128 FILLER_0_469
*129 FILLER_0_476
*130 FILLER_0_483
*131 FILLER_0_49
*132 FILLER_0_490
*133 FILLER_0_497
*134 FILLER_0_504
*135 FILLER_0_511
*136 FILLER_0_518
*137 FILLER_0_525
*138 FILLER_0_532
*139 FILLER_0_539
*140 FILLER_0_546
*141 FILLER_0_553
*142 FILLER_0_56
*143 FILLER_0_560
*144 FILLER_0_567
*145 FILLER_0_574
*146 FILLER_0_581
*147 FILLER_0_588
*148 FILLER_0_595
*149 FILLER_0_602
*150 FILLER_0_609
*151 FILLER_0_616
*152 FILLER_0_623
*153 FILLER_0_63
*154 FILLER_0_630
*155 FILLER_0_637
*156 FILLER_0_644
*157 FILLER_0_651
*158 FILLER_0_658
*159 FILLER_0_665
*160 FILLER_0_672
*161 FILLER_0_679
*162 FILLER_0_686
*163 FILLER_0_693
*164 FILLER_0_7
*165 FILLER_0_70
*166 FILLER_0_700
*167 FILLER_0_707
*168 FILLER_0_714
*169 FILLER_0_721
*170 FILLER_0_728
*171 FILLER_0_735
*172 FILLER_0_742
*173 FILLER_0_749
*174 FILLER_0_756
*175 FILLER_0_763
*176 FILLER_0_77
*177 FILLER_0_770
*178 FILLER_0_777
*179 FILLER_0_784
*180 FILLER_0_791
*181 FILLER_0_798
*182 FILLER_0_805
*183 FILLER_0_812
*184 FILLER_0_819
*185 FILLER_0_826
*186 FILLER_0_833
*187 FILLER_0_84
*188 FILLER_0_840
*189 FILLER_0_847
*190 FILLER_0_854
*191 FILLER_0_861
*192 FILLER_0_868
*193 FILLER_0_875
*194 FILLER_0_882
*195 FILLER_0_889
*196 FILLER_0_896
*197 FILLER_0_903
*198 FILLER_0_91
*199 FILLER_0_910
*200 FILLER_0_917
*201 FILLER_0_924
*202 FILLER_0_931
*203 FILLER_0_938
*204 FILLER_0_945
*205 FILLER_0_952
*206 FILLER_0_959
*207 FILLER_0_966
*208 FILLER_0_973
*209 FILLER_0_98
*210 FILLER_0_980
*211 FILLER_0_987
*212 FILLER_0_994
*213 FILLER_10_1005
*214 FILLER_10_1012
*215 FILLER_10_1019
*216 FILLER_10_102
*217 FILLER_10_1026
*218 FILLER_10_1028
*219 FILLER_10_109
*220 FILLER_10_11
*221 FILLER_10_116
*222 FILLER_10_123
*223 FILLER_10_130
*224 FILLER_10_137
*225 FILLER_10_144
*226 FILLER_10_151
*227 FILLER_10_158
*228 FILLER_10_165
*229 FILLER_10_172
*230 FILLER_10_179
*231 FILLER_10_18
*232 FILLER_10_186
*233 FILLER_10_193
*234 FILLER_10_200
*235 FILLER_10_207
*236 FILLER_10_214
*237 FILLER_10_221
*238 FILLER_10_228
*239 FILLER_10_235
*240 FILLER_10_242
*241 FILLER_10_249
*242 FILLER_10_25
*243 FILLER_10_256
*244 FILLER_10_263
*245 FILLER_10_270
*246 FILLER_10_277
*247 FILLER_10_284
*248 FILLER_10_291
*249 FILLER_10_298
*250 FILLER_10_305
*251 FILLER_10_312
*252 FILLER_10_319
*253 FILLER_10_32
*254 FILLER_10_326
*255 FILLER_10_333
*256 FILLER_10_340
*257 FILLER_10_347
*258 FILLER_10_354
*259 FILLER_10_361
*260 FILLER_10_368
*261 FILLER_10_375
*262 FILLER_10_382
*263 FILLER_10_39
*264 FILLER_10_4
*265 FILLER_10_46
*266 FILLER_10_53
*267 FILLER_10_599
*268 FILLER_10_60
*269 FILLER_10_606
*270 FILLER_10_613
*271 FILLER_10_620
*272 FILLER_10_627
*273 FILLER_10_634
*274 FILLER_10_641
*275 FILLER_10_648
*276 FILLER_10_655
*277 FILLER_10_662
*278 FILLER_10_669
*279 FILLER_10_67
*280 FILLER_10_676
*281 FILLER_10_683
*282 FILLER_10_690
*283 FILLER_10_697
*284 FILLER_10_704
*285 FILLER_10_711
*286 FILLER_10_718
*287 FILLER_10_725
*288 FILLER_10_732
*289 FILLER_10_739
*290 FILLER_10_74
*291 FILLER_10_746
*292 FILLER_10_753
*293 FILLER_10_760
*294 FILLER_10_767
*295 FILLER_10_774
*296 FILLER_10_781
*297 FILLER_10_788
*298 FILLER_10_795
*299 FILLER_10_802
*300 FILLER_10_809
*301 FILLER_10_81
*302 FILLER_10_816
*303 FILLER_10_823
*304 FILLER_10_830
*305 FILLER_10_837
*306 FILLER_10_844
*307 FILLER_10_851
*308 FILLER_10_858
*309 FILLER_10_865
*310 FILLER_10_872
*311 FILLER_10_879
*312 FILLER_10_88
*313 FILLER_10_886
*314 FILLER_10_893
*315 FILLER_10_900
*316 FILLER_10_907
*317 FILLER_10_914
*318 FILLER_10_921
*319 FILLER_10_928
*320 FILLER_10_935
*321 FILLER_10_942
*322 FILLER_10_949
*323 FILLER_10_95
*324 FILLER_10_956
*325 FILLER_10_963
*326 FILLER_10_970
*327 FILLER_10_977
*328 FILLER_10_984
*329 FILLER_10_991
*330 FILLER_10_998
*331 FILLER_11_1005
*332 FILLER_11_1012
*333 FILLER_11_1019
*334 FILLER_11_1026
*335 FILLER_11_1028
*336 FILLER_11_104
*337 FILLER_11_111
*338 FILLER_11_118
*339 FILLER_11_125
*340 FILLER_11_13
*341 FILLER_11_132
*342 FILLER_11_139
*343 FILLER_11_146
*344 FILLER_11_153
*345 FILLER_11_160
*346 FILLER_11_167
*347 FILLER_11_174
*348 FILLER_11_181
*349 FILLER_11_188
*350 FILLER_11_195
*351 FILLER_11_20
*352 FILLER_11_202
*353 FILLER_11_209
*354 FILLER_11_216
*355 FILLER_11_223
*356 FILLER_11_230
*357 FILLER_11_237
*358 FILLER_11_244
*359 FILLER_11_251
*360 FILLER_11_258
*361 FILLER_11_265
*362 FILLER_11_27
*363 FILLER_11_272
*364 FILLER_11_279
*365 FILLER_11_286
*366 FILLER_11_293
*367 FILLER_11_300
*368 FILLER_11_307
*369 FILLER_11_314
*370 FILLER_11_321
*371 FILLER_11_328
*372 FILLER_11_335
*373 FILLER_11_34
*374 FILLER_11_342
*375 FILLER_11_349
*376 FILLER_11_356
*377 FILLER_11_363
*378 FILLER_11_370
*379 FILLER_11_377
*380 FILLER_11_384
*381 FILLER_11_388
*382 FILLER_11_4
*383 FILLER_11_41
*384 FILLER_11_48
*385 FILLER_11_55
*386 FILLER_11_599
*387 FILLER_11_606
*388 FILLER_11_613
*389 FILLER_11_62
*390 FILLER_11_620
*391 FILLER_11_627
*392 FILLER_11_634
*393 FILLER_11_641
*394 FILLER_11_648
*395 FILLER_11_655
*396 FILLER_11_662
*397 FILLER_11_669
*398 FILLER_11_676
*399 FILLER_11_683
*400 FILLER_11_69
*401 FILLER_11_690
*402 FILLER_11_697
*403 FILLER_11_704
*404 FILLER_11_711
*405 FILLER_11_718
*406 FILLER_11_725
*407 FILLER_11_732
*408 FILLER_11_739
*409 FILLER_11_746
*410 FILLER_11_753
*411 FILLER_11_76
*412 FILLER_11_760
*413 FILLER_11_767
*414 FILLER_11_774
*415 FILLER_11_781
*416 FILLER_11_788
*417 FILLER_11_795
*418 FILLER_11_8
*419 FILLER_11_802
*420 FILLER_11_809
*421 FILLER_11_816
*422 FILLER_11_823
*423 FILLER_11_83
*424 FILLER_11_830
*425 FILLER_11_837
*426 FILLER_11_844
*427 FILLER_11_851
*428 FILLER_11_858
*429 FILLER_11_865
*430 FILLER_11_872
*431 FILLER_11_879
*432 FILLER_11_886
*433 FILLER_11_893
*434 FILLER_11_90
*435 FILLER_11_900
*436 FILLER_11_907
*437 FILLER_11_914
*438 FILLER_11_921
*439 FILLER_11_928
*440 FILLER_11_935
*441 FILLER_11_942
*442 FILLER_11_949
*443 FILLER_11_956
*444 FILLER_11_963
*445 FILLER_11_97
*446 FILLER_11_970
*447 FILLER_11_977
*448 FILLER_11_984
*449 FILLER_11_991
*450 FILLER_11_998
*451 FILLER_12_1005
*452 FILLER_12_1012
*453 FILLER_12_1019
*454 FILLER_12_1026
*455 FILLER_12_1028
*456 FILLER_12_104
*457 FILLER_12_111
*458 FILLER_12_118
*459 FILLER_12_125
*460 FILLER_12_13
*461 FILLER_12_132
*462 FILLER_12_139
*463 FILLER_12_146
*464 FILLER_12_153
*465 FILLER_12_160
*466 FILLER_12_167
*467 FILLER_12_174
*468 FILLER_12_181
*469 FILLER_12_188
*470 FILLER_12_195
*471 FILLER_12_20
*472 FILLER_12_202
*473 FILLER_12_209
*474 FILLER_12_216
*475 FILLER_12_223
*476 FILLER_12_230
*477 FILLER_12_237
*478 FILLER_12_244
*479 FILLER_12_251
*480 FILLER_12_258
*481 FILLER_12_265
*482 FILLER_12_27
*483 FILLER_12_272
*484 FILLER_12_279
*485 FILLER_12_286
*486 FILLER_12_293
*487 FILLER_12_300
*488 FILLER_12_307
*489 FILLER_12_314
*490 FILLER_12_321
*491 FILLER_12_328
*492 FILLER_12_335
*493 FILLER_12_34
*494 FILLER_12_342
*495 FILLER_12_349
*496 FILLER_12_356
*497 FILLER_12_363
*498 FILLER_12_370
*499 FILLER_12_377
*500 FILLER_12_384
*501 FILLER_12_388
*502 FILLER_12_4
*503 FILLER_12_41
*504 FILLER_12_48
*505 FILLER_12_55
*506 FILLER_12_599
*507 FILLER_12_606
*508 FILLER_12_613
*509 FILLER_12_62
*510 FILLER_12_620
*511 FILLER_12_627
*512 FILLER_12_634
*513 FILLER_12_641
*514 FILLER_12_648
*515 FILLER_12_655
*516 FILLER_12_662
*517 FILLER_12_669
*518 FILLER_12_676
*519 FILLER_12_683
*520 FILLER_12_69
*521 FILLER_12_690
*522 FILLER_12_697
*523 FILLER_12_704
*524 FILLER_12_711
*525 FILLER_12_718
*526 FILLER_12_725
*527 FILLER_12_732
*528 FILLER_12_739
*529 FILLER_12_746
*530 FILLER_12_753
*531 FILLER_12_76
*532 FILLER_12_760
*533 FILLER_12_767
*534 FILLER_12_774
*535 FILLER_12_781
*536 FILLER_12_788
*537 FILLER_12_795
*538 FILLER_12_8
*539 FILLER_12_802
*540 FILLER_12_809
*541 FILLER_12_816
*542 FILLER_12_823
*543 FILLER_12_83
*544 FILLER_12_830
*545 FILLER_12_837
*546 FILLER_12_844
*547 FILLER_12_851
*548 FILLER_12_858
*549 FILLER_12_865
*550 FILLER_12_872
*551 FILLER_12_879
*552 FILLER_12_886
*553 FILLER_12_893
*554 FILLER_12_90
*555 FILLER_12_900
*556 FILLER_12_907
*557 FILLER_12_914
*558 FILLER_12_921
*559 FILLER_12_928
*560 FILLER_12_935
*561 FILLER_12_942
*562 FILLER_12_949
*563 FILLER_12_956
*564 FILLER_12_963
*565 FILLER_12_97
*566 FILLER_12_970
*567 FILLER_12_977
*568 FILLER_12_984
*569 FILLER_12_991
*570 FILLER_12_998
*571 FILLER_13_1005
*572 FILLER_13_1012
*573 FILLER_13_1019
*574 FILLER_13_102
*575 FILLER_13_1026
*576 FILLER_13_1028
*577 FILLER_13_109
*578 FILLER_13_11
*579 FILLER_13_116
*580 FILLER_13_123
*581 FILLER_13_13
*582 FILLER_13_130
*583 FILLER_13_137
*584 FILLER_13_144
*585 FILLER_13_151
*586 FILLER_13_158
*587 FILLER_13_165
*588 FILLER_13_172
*589 FILLER_13_179
*590 FILLER_13_18
*591 FILLER_13_186
*592 FILLER_13_193
*593 FILLER_13_200
*594 FILLER_13_207
*595 FILLER_13_214
*596 FILLER_13_221
*597 FILLER_13_228
*598 FILLER_13_235
*599 FILLER_13_242
*600 FILLER_13_249
*601 FILLER_13_25
*602 FILLER_13_256
*603 FILLER_13_263
*604 FILLER_13_270
*605 FILLER_13_277
*606 FILLER_13_284
*607 FILLER_13_291
*608 FILLER_13_298
*609 FILLER_13_305
*610 FILLER_13_312
*611 FILLER_13_319
*612 FILLER_13_32
*613 FILLER_13_326
*614 FILLER_13_333
*615 FILLER_13_340
*616 FILLER_13_347
*617 FILLER_13_354
*618 FILLER_13_361
*619 FILLER_13_368
*620 FILLER_13_375
*621 FILLER_13_382
*622 FILLER_13_39
*623 FILLER_13_4
*624 FILLER_13_46
*625 FILLER_13_53
*626 FILLER_13_599
*627 FILLER_13_60
*628 FILLER_13_606
*629 FILLER_13_613
*630 FILLER_13_620
*631 FILLER_13_627
*632 FILLER_13_634
*633 FILLER_13_641
*634 FILLER_13_648
*635 FILLER_13_655
*636 FILLER_13_662
*637 FILLER_13_669
*638 FILLER_13_67
*639 FILLER_13_676
*640 FILLER_13_683
*641 FILLER_13_690
*642 FILLER_13_697
*643 FILLER_13_704
*644 FILLER_13_711
*645 FILLER_13_718
*646 FILLER_13_725
*647 FILLER_13_732
*648 FILLER_13_739
*649 FILLER_13_74
*650 FILLER_13_746
*651 FILLER_13_753
*652 FILLER_13_760
*653 FILLER_13_767
*654 FILLER_13_774
*655 FILLER_13_781
*656 FILLER_13_788
*657 FILLER_13_795
*658 FILLER_13_802
*659 FILLER_13_809
*660 FILLER_13_81
*661 FILLER_13_816
*662 FILLER_13_823
*663 FILLER_13_830
*664 FILLER_13_837
*665 FILLER_13_844
*666 FILLER_13_851
*667 FILLER_13_858
*668 FILLER_13_865
*669 FILLER_13_872
*670 FILLER_13_879
*671 FILLER_13_88
*672 FILLER_13_886
*673 FILLER_13_893
*674 FILLER_13_900
*675 FILLER_13_907
*676 FILLER_13_914
*677 FILLER_13_921
*678 FILLER_13_928
*679 FILLER_13_935
*680 FILLER_13_942
*681 FILLER_13_949
*682 FILLER_13_95
*683 FILLER_13_956
*684 FILLER_13_963
*685 FILLER_13_970
*686 FILLER_13_977
*687 FILLER_13_984
*688 FILLER_13_991
*689 FILLER_13_998
*690 FILLER_14_1005
*691 FILLER_14_1012
*692 FILLER_14_1019
*693 FILLER_14_1026
*694 FILLER_14_1028
*695 FILLER_14_105
*696 FILLER_14_11
*697 FILLER_14_112
*698 FILLER_14_119
*699 FILLER_14_126
*700 FILLER_14_133
*701 FILLER_14_140
*702 FILLER_14_147
*703 FILLER_14_154
*704 FILLER_14_161
*705 FILLER_14_168
*706 FILLER_14_175
*707 FILLER_14_18
*708 FILLER_14_182
*709 FILLER_14_189
*710 FILLER_14_196
*711 FILLER_14_203
*712 FILLER_14_210
*713 FILLER_14_217
*714 FILLER_14_224
*715 FILLER_14_231
*716 FILLER_14_238
*717 FILLER_14_245
*718 FILLER_14_25
*719 FILLER_14_252
*720 FILLER_14_259
*721 FILLER_14_266
*722 FILLER_14_273
*723 FILLER_14_280
*724 FILLER_14_287
*725 FILLER_14_294
*726 FILLER_14_301
*727 FILLER_14_308
*728 FILLER_14_315
*729 FILLER_14_32
*730 FILLER_14_322
*731 FILLER_14_329
*732 FILLER_14_336
*733 FILLER_14_343
*734 FILLER_14_350
*735 FILLER_14_357
*736 FILLER_14_364
*737 FILLER_14_371
*738 FILLER_14_378
*739 FILLER_14_385
*740 FILLER_14_39
*741 FILLER_14_4
*742 FILLER_14_46
*743 FILLER_14_53
*744 FILLER_14_599
*745 FILLER_14_60
*746 FILLER_14_606
*747 FILLER_14_613
*748 FILLER_14_620
*749 FILLER_14_627
*750 FILLER_14_634
*751 FILLER_14_641
*752 FILLER_14_648
*753 FILLER_14_655
*754 FILLER_14_662
*755 FILLER_14_669
*756 FILLER_14_67
*757 FILLER_14_676
*758 FILLER_14_683
*759 FILLER_14_690
*760 FILLER_14_697
*761 FILLER_14_704
*762 FILLER_14_71
*763 FILLER_14_711
*764 FILLER_14_718
*765 FILLER_14_725
*766 FILLER_14_732
*767 FILLER_14_739
*768 FILLER_14_746
*769 FILLER_14_753
*770 FILLER_14_760
*771 FILLER_14_767
*772 FILLER_14_77
*773 FILLER_14_774
*774 FILLER_14_781
*775 FILLER_14_788
*776 FILLER_14_795
*777 FILLER_14_802
*778 FILLER_14_809
*779 FILLER_14_816
*780 FILLER_14_823
*781 FILLER_14_830
*782 FILLER_14_837
*783 FILLER_14_84
*784 FILLER_14_844
*785 FILLER_14_851
*786 FILLER_14_858
*787 FILLER_14_865
*788 FILLER_14_872
*789 FILLER_14_879
*790 FILLER_14_886
*791 FILLER_14_893
*792 FILLER_14_900
*793 FILLER_14_907
*794 FILLER_14_91
*795 FILLER_14_914
*796 FILLER_14_921
*797 FILLER_14_928
*798 FILLER_14_935
*799 FILLER_14_942
*800 FILLER_14_949
*801 FILLER_14_956
*802 FILLER_14_963
*803 FILLER_14_970
*804 FILLER_14_977
*805 FILLER_14_98
*806 FILLER_14_984
*807 FILLER_14_991
*808 FILLER_14_998
*809 FILLER_15_1005
*810 FILLER_15_1012
*811 FILLER_15_1019
*812 FILLER_15_1026
*813 FILLER_15_1028
*814 FILLER_15_105
*815 FILLER_15_11
*816 FILLER_15_112
*817 FILLER_15_119
*818 FILLER_15_126
*819 FILLER_15_133
*820 FILLER_15_140
*821 FILLER_15_147
*822 FILLER_15_154
*823 FILLER_15_161
*824 FILLER_15_168
*825 FILLER_15_175
*826 FILLER_15_18
*827 FILLER_15_182
*828 FILLER_15_189
*829 FILLER_15_196
*830 FILLER_15_203
*831 FILLER_15_210
*832 FILLER_15_217
*833 FILLER_15_224
*834 FILLER_15_231
*835 FILLER_15_238
*836 FILLER_15_245
*837 FILLER_15_25
*838 FILLER_15_252
*839 FILLER_15_259
*840 FILLER_15_266
*841 FILLER_15_273
*842 FILLER_15_280
*843 FILLER_15_287
*844 FILLER_15_294
*845 FILLER_15_301
*846 FILLER_15_308
*847 FILLER_15_315
*848 FILLER_15_32
*849 FILLER_15_322
*850 FILLER_15_329
*851 FILLER_15_336
*852 FILLER_15_343
*853 FILLER_15_350
*854 FILLER_15_357
*855 FILLER_15_364
*856 FILLER_15_371
*857 FILLER_15_378
*858 FILLER_15_385
*859 FILLER_15_39
*860 FILLER_15_4
*861 FILLER_15_46
*862 FILLER_15_53
*863 FILLER_15_599
*864 FILLER_15_60
*865 FILLER_15_606
*866 FILLER_15_613
*867 FILLER_15_620
*868 FILLER_15_627
*869 FILLER_15_634
*870 FILLER_15_641
*871 FILLER_15_648
*872 FILLER_15_655
*873 FILLER_15_662
*874 FILLER_15_669
*875 FILLER_15_67
*876 FILLER_15_676
*877 FILLER_15_683
*878 FILLER_15_690
*879 FILLER_15_697
*880 FILLER_15_704
*881 FILLER_15_71
*882 FILLER_15_711
*883 FILLER_15_718
*884 FILLER_15_725
*885 FILLER_15_732
*886 FILLER_15_739
*887 FILLER_15_746
*888 FILLER_15_753
*889 FILLER_15_760
*890 FILLER_15_767
*891 FILLER_15_77
*892 FILLER_15_774
*893 FILLER_15_781
*894 FILLER_15_788
*895 FILLER_15_795
*896 FILLER_15_802
*897 FILLER_15_809
*898 FILLER_15_816
*899 FILLER_15_823
*900 FILLER_15_830
*901 FILLER_15_837
*902 FILLER_15_84
*903 FILLER_15_844
*904 FILLER_15_851
*905 FILLER_15_858
*906 FILLER_15_865
*907 FILLER_15_872
*908 FILLER_15_879
*909 FILLER_15_886
*910 FILLER_15_893
*911 FILLER_15_900
*912 FILLER_15_907
*913 FILLER_15_91
*914 FILLER_15_914
*915 FILLER_15_921
*916 FILLER_15_928
*917 FILLER_15_935
*918 FILLER_15_942
*919 FILLER_15_949
*920 FILLER_15_956
*921 FILLER_15_963
*922 FILLER_15_970
*923 FILLER_15_977
*924 FILLER_15_98
*925 FILLER_15_984
*926 FILLER_15_991
*927 FILLER_15_998
*928 FILLER_16_1005
*929 FILLER_16_1012
*930 FILLER_16_1019
*931 FILLER_16_102
*932 FILLER_16_1026
*933 FILLER_16_1028
*934 FILLER_16_109
*935 FILLER_16_11
*936 FILLER_16_116
*937 FILLER_16_123
*938 FILLER_16_13
*939 FILLER_16_130
*940 FILLER_16_137
*941 FILLER_16_144
*942 FILLER_16_151
*943 FILLER_16_158
*944 FILLER_16_165
*945 FILLER_16_172
*946 FILLER_16_179
*947 FILLER_16_18
*948 FILLER_16_186
*949 FILLER_16_193
*950 FILLER_16_200
*951 FILLER_16_207
*952 FILLER_16_214
*953 FILLER_16_221
*954 FILLER_16_228
*955 FILLER_16_235
*956 FILLER_16_242
*957 FILLER_16_249
*958 FILLER_16_25
*959 FILLER_16_256
*960 FILLER_16_263
*961 FILLER_16_270
*962 FILLER_16_277
*963 FILLER_16_284
*964 FILLER_16_291
*965 FILLER_16_298
*966 FILLER_16_305
*967 FILLER_16_312
*968 FILLER_16_319
*969 FILLER_16_32
*970 FILLER_16_326
*971 FILLER_16_333
*972 FILLER_16_340
*973 FILLER_16_347
*974 FILLER_16_354
*975 FILLER_16_361
*976 FILLER_16_368
*977 FILLER_16_375
*978 FILLER_16_382
*979 FILLER_16_39
*980 FILLER_16_4
*981 FILLER_16_46
*982 FILLER_16_53
*983 FILLER_16_599
*984 FILLER_16_60
*985 FILLER_16_606
*986 FILLER_16_613
*987 FILLER_16_620
*988 FILLER_16_627
*989 FILLER_16_634
*990 FILLER_16_641
*991 FILLER_16_648
*992 FILLER_16_655
*993 FILLER_16_662
*994 FILLER_16_669
*995 FILLER_16_67
*996 FILLER_16_676
*997 FILLER_16_683
*998 FILLER_16_690
*999 FILLER_16_697
*1000 FILLER_16_704
*1001 FILLER_16_711
*1002 FILLER_16_718
*1003 FILLER_16_725
*1004 FILLER_16_732
*1005 FILLER_16_739
*1006 FILLER_16_74
*1007 FILLER_16_746
*1008 FILLER_16_753
*1009 FILLER_16_760
*1010 FILLER_16_767
*1011 FILLER_16_774
*1012 FILLER_16_781
*1013 FILLER_16_788
*1014 FILLER_16_795
*1015 FILLER_16_802
*1016 FILLER_16_809
*1017 FILLER_16_81
*1018 FILLER_16_816
*1019 FILLER_16_823
*1020 FILLER_16_830
*1021 FILLER_16_837
*1022 FILLER_16_844
*1023 FILLER_16_851
*1024 FILLER_16_858
*1025 FILLER_16_865
*1026 FILLER_16_872
*1027 FILLER_16_879
*1028 FILLER_16_88
*1029 FILLER_16_886
*1030 FILLER_16_893
*1031 FILLER_16_900
*1032 FILLER_16_907
*1033 FILLER_16_914
*1034 FILLER_16_921
*1035 FILLER_16_928
*1036 FILLER_16_935
*1037 FILLER_16_942
*1038 FILLER_16_949
*1039 FILLER_16_95
*1040 FILLER_16_956
*1041 FILLER_16_963
*1042 FILLER_16_970
*1043 FILLER_16_977
*1044 FILLER_16_984
*1045 FILLER_16_991
*1046 FILLER_16_998
*1047 FILLER_17_0
*1048 FILLER_17_1005
*1049 FILLER_17_1012
*1050 FILLER_17_1019
*1051 FILLER_17_1026
*1052 FILLER_17_1028
*1053 FILLER_17_104
*1054 FILLER_17_111
*1055 FILLER_17_118
*1056 FILLER_17_125
*1057 FILLER_17_13
*1058 FILLER_17_132
*1059 FILLER_17_139
*1060 FILLER_17_146
*1061 FILLER_17_153
*1062 FILLER_17_160
*1063 FILLER_17_167
*1064 FILLER_17_174
*1065 FILLER_17_181
*1066 FILLER_17_188
*1067 FILLER_17_195
*1068 FILLER_17_20
*1069 FILLER_17_202
*1070 FILLER_17_209
*1071 FILLER_17_216
*1072 FILLER_17_223
*1073 FILLER_17_230
*1074 FILLER_17_237
*1075 FILLER_17_244
*1076 FILLER_17_251
*1077 FILLER_17_258
*1078 FILLER_17_265
*1079 FILLER_17_27
*1080 FILLER_17_272
*1081 FILLER_17_279
*1082 FILLER_17_286
*1083 FILLER_17_293
*1084 FILLER_17_300
*1085 FILLER_17_307
*1086 FILLER_17_314
*1087 FILLER_17_321
*1088 FILLER_17_328
*1089 FILLER_17_335
*1090 FILLER_17_34
*1091 FILLER_17_342
*1092 FILLER_17_349
*1093 FILLER_17_356
*1094 FILLER_17_363
*1095 FILLER_17_370
*1096 FILLER_17_377
*1097 FILLER_17_384
*1098 FILLER_17_388
*1099 FILLER_17_41
*1100 FILLER_17_48
*1101 FILLER_17_55
*1102 FILLER_17_599
*1103 FILLER_17_606
*1104 FILLER_17_613
*1105 FILLER_17_62
*1106 FILLER_17_620
*1107 FILLER_17_627
*1108 FILLER_17_634
*1109 FILLER_17_641
*1110 FILLER_17_648
*1111 FILLER_17_655
*1112 FILLER_17_662
*1113 FILLER_17_669
*1114 FILLER_17_676
*1115 FILLER_17_683
*1116 FILLER_17_69
*1117 FILLER_17_690
*1118 FILLER_17_697
*1119 FILLER_17_7
*1120 FILLER_17_704
*1121 FILLER_17_711
*1122 FILLER_17_718
*1123 FILLER_17_725
*1124 FILLER_17_732
*1125 FILLER_17_739
*1126 FILLER_17_746
*1127 FILLER_17_753
*1128 FILLER_17_76
*1129 FILLER_17_760
*1130 FILLER_17_767
*1131 FILLER_17_774
*1132 FILLER_17_781
*1133 FILLER_17_788
*1134 FILLER_17_795
*1135 FILLER_17_802
*1136 FILLER_17_809
*1137 FILLER_17_816
*1138 FILLER_17_823
*1139 FILLER_17_83
*1140 FILLER_17_830
*1141 FILLER_17_837
*1142 FILLER_17_844
*1143 FILLER_17_851
*1144 FILLER_17_858
*1145 FILLER_17_865
*1146 FILLER_17_872
*1147 FILLER_17_879
*1148 FILLER_17_886
*1149 FILLER_17_893
*1150 FILLER_17_90
*1151 FILLER_17_900
*1152 FILLER_17_907
*1153 FILLER_17_914
*1154 FILLER_17_921
*1155 FILLER_17_928
*1156 FILLER_17_935
*1157 FILLER_17_942
*1158 FILLER_17_949
*1159 FILLER_17_956
*1160 FILLER_17_963
*1161 FILLER_17_97
*1162 FILLER_17_970
*1163 FILLER_17_977
*1164 FILLER_17_984
*1165 FILLER_17_991
*1166 FILLER_17_998
*1167 FILLER_18_1005
*1168 FILLER_18_1012
*1169 FILLER_18_1019
*1170 FILLER_18_102
*1171 FILLER_18_1026
*1172 FILLER_18_1028
*1173 FILLER_18_109
*1174 FILLER_18_11
*1175 FILLER_18_116
*1176 FILLER_18_123
*1177 FILLER_18_130
*1178 FILLER_18_137
*1179 FILLER_18_144
*1180 FILLER_18_151
*1181 FILLER_18_158
*1182 FILLER_18_165
*1183 FILLER_18_172
*1184 FILLER_18_179
*1185 FILLER_18_18
*1186 FILLER_18_186
*1187 FILLER_18_193
*1188 FILLER_18_200
*1189 FILLER_18_207
*1190 FILLER_18_214
*1191 FILLER_18_221
*1192 FILLER_18_228
*1193 FILLER_18_235
*1194 FILLER_18_242
*1195 FILLER_18_249
*1196 FILLER_18_25
*1197 FILLER_18_256
*1198 FILLER_18_263
*1199 FILLER_18_270
*1200 FILLER_18_277
*1201 FILLER_18_284
*1202 FILLER_18_291
*1203 FILLER_18_298
*1204 FILLER_18_305
*1205 FILLER_18_312
*1206 FILLER_18_319
*1207 FILLER_18_32
*1208 FILLER_18_326
*1209 FILLER_18_333
*1210 FILLER_18_340
*1211 FILLER_18_347
*1212 FILLER_18_354
*1213 FILLER_18_361
*1214 FILLER_18_368
*1215 FILLER_18_375
*1216 FILLER_18_382
*1217 FILLER_18_39
*1218 FILLER_18_4
*1219 FILLER_18_46
*1220 FILLER_18_53
*1221 FILLER_18_599
*1222 FILLER_18_60
*1223 FILLER_18_606
*1224 FILLER_18_613
*1225 FILLER_18_620
*1226 FILLER_18_627
*1227 FILLER_18_634
*1228 FILLER_18_641
*1229 FILLER_18_648
*1230 FILLER_18_655
*1231 FILLER_18_662
*1232 FILLER_18_669
*1233 FILLER_18_67
*1234 FILLER_18_676
*1235 FILLER_18_683
*1236 FILLER_18_690
*1237 FILLER_18_697
*1238 FILLER_18_704
*1239 FILLER_18_711
*1240 FILLER_18_718
*1241 FILLER_18_725
*1242 FILLER_18_732
*1243 FILLER_18_739
*1244 FILLER_18_74
*1245 FILLER_18_746
*1246 FILLER_18_753
*1247 FILLER_18_760
*1248 FILLER_18_767
*1249 FILLER_18_774
*1250 FILLER_18_781
*1251 FILLER_18_788
*1252 FILLER_18_795
*1253 FILLER_18_802
*1254 FILLER_18_809
*1255 FILLER_18_81
*1256 FILLER_18_816
*1257 FILLER_18_823
*1258 FILLER_18_830
*1259 FILLER_18_837
*1260 FILLER_18_844
*1261 FILLER_18_851
*1262 FILLER_18_858
*1263 FILLER_18_865
*1264 FILLER_18_872
*1265 FILLER_18_879
*1266 FILLER_18_88
*1267 FILLER_18_886
*1268 FILLER_18_893
*1269 FILLER_18_900
*1270 FILLER_18_907
*1271 FILLER_18_914
*1272 FILLER_18_921
*1273 FILLER_18_928
*1274 FILLER_18_935
*1275 FILLER_18_942
*1276 FILLER_18_949
*1277 FILLER_18_95
*1278 FILLER_18_956
*1279 FILLER_18_963
*1280 FILLER_18_970
*1281 FILLER_18_977
*1282 FILLER_18_984
*1283 FILLER_18_991
*1284 FILLER_18_998
*1285 FILLER_19_1005
*1286 FILLER_19_1012
*1287 FILLER_19_1019
*1288 FILLER_19_102
*1289 FILLER_19_1026
*1290 FILLER_19_1028
*1291 FILLER_19_109
*1292 FILLER_19_11
*1293 FILLER_19_116
*1294 FILLER_19_123
*1295 FILLER_19_130
*1296 FILLER_19_137
*1297 FILLER_19_144
*1298 FILLER_19_151
*1299 FILLER_19_158
*1300 FILLER_19_165
*1301 FILLER_19_172
*1302 FILLER_19_179
*1303 FILLER_19_18
*1304 FILLER_19_186
*1305 FILLER_19_193
*1306 FILLER_19_200
*1307 FILLER_19_207
*1308 FILLER_19_214
*1309 FILLER_19_221
*1310 FILLER_19_228
*1311 FILLER_19_235
*1312 FILLER_19_242
*1313 FILLER_19_249
*1314 FILLER_19_25
*1315 FILLER_19_256
*1316 FILLER_19_263
*1317 FILLER_19_270
*1318 FILLER_19_277
*1319 FILLER_19_284
*1320 FILLER_19_291
*1321 FILLER_19_298
*1322 FILLER_19_305
*1323 FILLER_19_312
*1324 FILLER_19_319
*1325 FILLER_19_32
*1326 FILLER_19_326
*1327 FILLER_19_333
*1328 FILLER_19_340
*1329 FILLER_19_347
*1330 FILLER_19_354
*1331 FILLER_19_361
*1332 FILLER_19_368
*1333 FILLER_19_375
*1334 FILLER_19_382
*1335 FILLER_19_39
*1336 FILLER_19_4
*1337 FILLER_19_46
*1338 FILLER_19_53
*1339 FILLER_19_599
*1340 FILLER_19_60
*1341 FILLER_19_606
*1342 FILLER_19_613
*1343 FILLER_19_620
*1344 FILLER_19_627
*1345 FILLER_19_634
*1346 FILLER_19_641
*1347 FILLER_19_648
*1348 FILLER_19_655
*1349 FILLER_19_662
*1350 FILLER_19_669
*1351 FILLER_19_67
*1352 FILLER_19_676
*1353 FILLER_19_683
*1354 FILLER_19_690
*1355 FILLER_19_697
*1356 FILLER_19_704
*1357 FILLER_19_711
*1358 FILLER_19_718
*1359 FILLER_19_725
*1360 FILLER_19_732
*1361 FILLER_19_739
*1362 FILLER_19_74
*1363 FILLER_19_746
*1364 FILLER_19_753
*1365 FILLER_19_760
*1366 FILLER_19_767
*1367 FILLER_19_774
*1368 FILLER_19_781
*1369 FILLER_19_788
*1370 FILLER_19_795
*1371 FILLER_19_802
*1372 FILLER_19_809
*1373 FILLER_19_81
*1374 FILLER_19_816
*1375 FILLER_19_823
*1376 FILLER_19_830
*1377 FILLER_19_837
*1378 FILLER_19_844
*1379 FILLER_19_851
*1380 FILLER_19_858
*1381 FILLER_19_865
*1382 FILLER_19_872
*1383 FILLER_19_879
*1384 FILLER_19_88
*1385 FILLER_19_886
*1386 FILLER_19_893
*1387 FILLER_19_900
*1388 FILLER_19_907
*1389 FILLER_19_914
*1390 FILLER_19_921
*1391 FILLER_19_928
*1392 FILLER_19_935
*1393 FILLER_19_942
*1394 FILLER_19_949
*1395 FILLER_19_95
*1396 FILLER_19_956
*1397 FILLER_19_963
*1398 FILLER_19_970
*1399 FILLER_19_977
*1400 FILLER_19_984
*1401 FILLER_19_991
*1402 FILLER_19_998
*1403 FILLER_1_0
*1404 FILLER_1_1001
*1405 FILLER_1_1008
*1406 FILLER_1_1015
*1407 FILLER_1_1022
*1408 FILLER_1_105
*1409 FILLER_1_112
*1410 FILLER_1_119
*1411 FILLER_1_126
*1412 FILLER_1_133
*1413 FILLER_1_14
*1414 FILLER_1_140
*1415 FILLER_1_147
*1416 FILLER_1_154
*1417 FILLER_1_161
*1418 FILLER_1_168
*1419 FILLER_1_175
*1420 FILLER_1_182
*1421 FILLER_1_189
*1422 FILLER_1_196
*1423 FILLER_1_203
*1424 FILLER_1_21
*1425 FILLER_1_210
*1426 FILLER_1_217
*1427 FILLER_1_224
*1428 FILLER_1_231
*1429 FILLER_1_238
*1430 FILLER_1_245
*1431 FILLER_1_252
*1432 FILLER_1_259
*1433 FILLER_1_266
*1434 FILLER_1_273
*1435 FILLER_1_28
*1436 FILLER_1_280
*1437 FILLER_1_287
*1438 FILLER_1_294
*1439 FILLER_1_301
*1440 FILLER_1_308
*1441 FILLER_1_315
*1442 FILLER_1_322
*1443 FILLER_1_329
*1444 FILLER_1_336
*1445 FILLER_1_343
*1446 FILLER_1_35
*1447 FILLER_1_350
*1448 FILLER_1_357
*1449 FILLER_1_364
*1450 FILLER_1_371
*1451 FILLER_1_378
*1452 FILLER_1_385
*1453 FILLER_1_392
*1454 FILLER_1_399
*1455 FILLER_1_406
*1456 FILLER_1_413
*1457 FILLER_1_42
*1458 FILLER_1_420
*1459 FILLER_1_427
*1460 FILLER_1_434
*1461 FILLER_1_441
*1462 FILLER_1_448
*1463 FILLER_1_455
*1464 FILLER_1_462
*1465 FILLER_1_469
*1466 FILLER_1_476
*1467 FILLER_1_483
*1468 FILLER_1_49
*1469 FILLER_1_490
*1470 FILLER_1_497
*1471 FILLER_1_504
*1472 FILLER_1_511
*1473 FILLER_1_518
*1474 FILLER_1_525
*1475 FILLER_1_532
*1476 FILLER_1_539
*1477 FILLER_1_546
*1478 FILLER_1_553
*1479 FILLER_1_56
*1480 FILLER_1_560
*1481 FILLER_1_567
*1482 FILLER_1_574
*1483 FILLER_1_581
*1484 FILLER_1_588
*1485 FILLER_1_595
*1486 FILLER_1_602
*1487 FILLER_1_609
*1488 FILLER_1_616
*1489 FILLER_1_623
*1490 FILLER_1_63
*1491 FILLER_1_630
*1492 FILLER_1_637
*1493 FILLER_1_644
*1494 FILLER_1_651
*1495 FILLER_1_658
*1496 FILLER_1_665
*1497 FILLER_1_672
*1498 FILLER_1_679
*1499 FILLER_1_686
*1500 FILLER_1_693
*1501 FILLER_1_7
*1502 FILLER_1_70
*1503 FILLER_1_700
*1504 FILLER_1_707
*1505 FILLER_1_714
*1506 FILLER_1_721
*1507 FILLER_1_728
*1508 FILLER_1_735
*1509 FILLER_1_742
*1510 FILLER_1_749
*1511 FILLER_1_756
*1512 FILLER_1_763
*1513 FILLER_1_77
*1514 FILLER_1_770
*1515 FILLER_1_777
*1516 FILLER_1_784
*1517 FILLER_1_791
*1518 FILLER_1_798
*1519 FILLER_1_805
*1520 FILLER_1_812
*1521 FILLER_1_819
*1522 FILLER_1_826
*1523 FILLER_1_833
*1524 FILLER_1_84
*1525 FILLER_1_840
*1526 FILLER_1_847
*1527 FILLER_1_854
*1528 FILLER_1_861
*1529 FILLER_1_868
*1530 FILLER_1_875
*1531 FILLER_1_882
*1532 FILLER_1_889
*1533 FILLER_1_896
*1534 FILLER_1_903
*1535 FILLER_1_91
*1536 FILLER_1_910
*1537 FILLER_1_917
*1538 FILLER_1_924
*1539 FILLER_1_931
*1540 FILLER_1_938
*1541 FILLER_1_945
*1542 FILLER_1_952
*1543 FILLER_1_959
*1544 FILLER_1_966
*1545 FILLER_1_973
*1546 FILLER_1_98
*1547 FILLER_1_980
*1548 FILLER_1_987
*1549 FILLER_1_994
*1550 FILLER_20_1005
*1551 FILLER_20_1012
*1552 FILLER_20_1019
*1553 FILLER_20_102
*1554 FILLER_20_1026
*1555 FILLER_20_1028
*1556 FILLER_20_109
*1557 FILLER_20_11
*1558 FILLER_20_116
*1559 FILLER_20_123
*1560 FILLER_20_130
*1561 FILLER_20_137
*1562 FILLER_20_144
*1563 FILLER_20_151
*1564 FILLER_20_158
*1565 FILLER_20_165
*1566 FILLER_20_172
*1567 FILLER_20_179
*1568 FILLER_20_18
*1569 FILLER_20_186
*1570 FILLER_20_193
*1571 FILLER_20_200
*1572 FILLER_20_207
*1573 FILLER_20_214
*1574 FILLER_20_221
*1575 FILLER_20_228
*1576 FILLER_20_235
*1577 FILLER_20_242
*1578 FILLER_20_249
*1579 FILLER_20_25